
*** ChampSim Multicore Out-of-Order Simulator ***

Warmup Instructions: 25000000
Simulation Instructions: 25000000
Number of CPUs: 1
LLC sets: 2048
LLC ways: 16
Off-chip DRAM Size: 4096 MB Channels: 1 Width: 64-bit Data Rate: 6400 MT/s
CPU 0 runs given/traces/trace2.champsimtrace.xz
.xz
CPU 0 Bimodal branch predictor
BTB has LRU replacement policy
ITLB has LRU replacement policy
DTLB has LRU replacement policy
STLB has LRU replacement policy
L1I has LRU replacement policy
CPU 0 L1D IP-based stride prefetcher
L1D has LRU replacement policy
L2C has LRU replacement policy
LLC has LRU replacement policy
Heartbeat CPU 0 instructions: 10000002 cycles: 3778089 heartbeat IPC: 2.64684 cumulative IPC: 2.64684 (Simulation time: 0 hr 0 min 13 sec) 
Heartbeat CPU 0 instructions: 20000001 cycles: 7558266 heartbeat IPC: 2.64538 cumulative IPC: 2.64611 (Simulation time: 0 hr 0 min 26 sec) 

Warmup complete CPU 0 instructions: 25000001 cycles: 9447480 (Simulation time: 0 hr 0 min 32 sec) 

Heartbeat CPU 0 instructions: 30000001 cycles: 49227685 heartbeat IPC: 0.239984 cumulative IPC: 0.125691 (Simulation time: 0 hr 0 min 50 sec) 
Heartbeat CPU 0 instructions: 40000002 cycles: 128519835 heartbeat IPC: 0.126116 cumulative IPC: 0.125974 (Simulation time: 0 hr 1 min 26 sec) 
Heartbeat CPU 0 instructions: 50000000 cycles: 206441222 heartbeat IPC: 0.128334 cumulative IPC: 0.126908 (Simulation time: 0 hr 2 min 1 sec) 
Finished CPU 0 instructions: 25000000 cycles: 196993764 cumulative IPC: 0.126908 (Simulation time: 0 hr 2 min 1 sec) 

ChampSim completed all CPUs

Region of Interest Statistics

CPU 0 cumulative IPC: 0.126908 instructions: 25000000 cycles: 196993764
ITLB TOTAL     ACCESS:    5412316  HIT:    5412316  MISS:          0  HIT %:        100  MISS %:          0   MPKI: 0
ITLB LOAD TRANSLATION ACCESS:    5412316  HIT:    5412316  MISS:          0  HIT %:        100  MISS %:          0   MPKI: 0
ITLB PREFETCH  REQUESTED:          0  ISSUED:          0  USEFUL:          0  USELESS:          0
ITLB USEFUL LOAD PREFETCHES:          0 PREFETCH ISSUED TO LOWER LEVEL:          0  ACCURACY: -nan
ITLB TIMELY PREFETCHES:          0 LATE PREFETCHES: 0 DROPPED PREFETCHES: 0
ITLB PREFETCHES SAME FILL-ORIGIN LEVEL: 0 DIFFERENT FILL-ORIGIN LEVEL: 0
ITLB AVERAGE MISS LATENCY: -nan cycles
ITLB RQ	ACCESS:    5497747	FORWARD:          0	MERGED:      85431	TO_CACHE:    5412316

DTLB TOTAL     ACCESS:    3871135  HIT:    3837122  MISS:      34013  HIT %:    99.1214  MISS %:   0.878631   MPKI: 1.36052
DTLB LOAD TRANSLATION ACCESS:    3871135  HIT:    3837122  MISS:      34013  HIT %:    99.1214  MISS %:   0.878631   MPKI: 1.36052
DTLB PREFETCH  REQUESTED:          0  ISSUED:          0  USEFUL:          0  USELESS:          0
DTLB USEFUL LOAD PREFETCHES:          0 PREFETCH ISSUED TO LOWER LEVEL:          0  ACCURACY: -nan
DTLB TIMELY PREFETCHES:          0 LATE PREFETCHES: 0 DROPPED PREFETCHES: 0
DTLB PREFETCHES SAME FILL-ORIGIN LEVEL: 0 DIFFERENT FILL-ORIGIN LEVEL: 0
DTLB AVERAGE MISS LATENCY: 106.396 cycles
DTLB RQ	ACCESS:    4554162	FORWARD:          0	MERGED:     682912	TO_CACHE:    3871250

STLB TOTAL     ACCESS:     742038  HIT:     709342  MISS:      32696  HIT %:    95.5938  MISS %:    4.40624   MPKI: 1.30784
STLB LOAD TRANSLATION ACCESS:      34013  HIT:       1319  MISS:      32694  HIT %:    3.87793  MISS %:    96.1221   MPKI: 1.30776
STLB TRANSLATION FROM L1D PREFETCHER ACCESS:     708025  HIT:     708023  MISS:          2  HIT %:    99.9997  MISS %: 0.000282476   MPKI: 8e-05
STLB PREFETCH  REQUESTED:          0  ISSUED:          0  USEFUL:          2  USELESS:          0
STLB USEFUL LOAD PREFETCHES:          2 PREFETCH ISSUED TO LOWER LEVEL:          0  ACCURACY: inf
STLB TIMELY PREFETCHES:          2 LATE PREFETCHES: 0 DROPPED PREFETCHES: 0
STLB PREFETCHES SAME FILL-ORIGIN LEVEL: 0 DIFFERENT FILL-ORIGIN LEVEL: 0
STLB AVERAGE MISS LATENCY: 101.318 cycles
STLB RQ	ACCESS:     744691	FORWARD:          0	MERGED:       2653	TO_CACHE:     742038

STLB Hit, L1D data hit: 0
STLB Hit, L2C data hit: 0
STLB Hit, LLC data hit: 0
STLB Hit, LLC data miss: 0
STLB STLB hints to L2: 0
L1D TOTAL     ACCESS:    4731389  HIT:    2951071  MISS:    1780318  HIT %:    62.3722  MISS %:    37.6278   MPKI: 71.2127
L1D LOAD      ACCESS:    3798703  HIT:    2591352  MISS:    1207351  HIT %:    68.2168  MISS %:    31.7832   MPKI: 48.294
L1D RFO       ACCESS:     333863  HIT:     333144  MISS:        719  HIT %:    99.7846  MISS %:   0.215358   MPKI: 0.02876
L1D PREFETCH  ACCESS:     598823  HIT:      26575  MISS:     572248  HIT %:    4.43787  MISS %:    95.5621   MPKI: 22.8899
AGUS PREFETCH L1 MISS: 0
L1D PREFETCH  REQUESTED:    1647567  ISSUED:    1647567  USEFUL:     542342  USELESS:      29939
L1D USEFUL LOAD PREFETCHES:     542342 PREFETCH ISSUED TO LOWER LEVEL:     572248  ACCURACY: 94.7739
L1D TIMELY PREFETCHES:     542342 LATE PREFETCHES: 0 DROPPED PREFETCHES: 0
L1D PREFETCHES SAME FILL-ORIGIN LEVEL: 572248 DIFFERENT FILL-ORIGIN LEVEL: 0
L1D AVERAGE MISS LATENCY: 134.246 cycles
L1D RQ	ACCESS:    8972651	FORWARD:          0	MERGED:    4750934	TO_CACHE:    4220295
L1D WQ	ACCESS:     370377	FORWARD:       1477	MERGED:      36510	TO_CACHE:     333867
L1D PQ	ACCESS:     936889	FORWARD:          0	MERGED:     226156	TO_CACHE:     710678

L1D UNIQUE REGIONS ACCESSED: 0
L1D REGIONS CONFLICTS: 0
L1D Cross Page Prefetch Requests: 0
L1D Same Page Prefetch Requests: 1908963
L1D ROI Sum of L1D PQ occupancy: 9242453
L1D PREFETCHES PUSHED FROM L2C: 0
L1I TOTAL     ACCESS:    5497746  HIT:    5497746  MISS:          0  HIT %:        100  MISS %:          0   MPKI: 0
L1I LOAD      ACCESS:    5497746  HIT:    5497746  MISS:          0  HIT %:        100  MISS %:          0   MPKI: 0
L1I PREFETCH  REQUESTED:          0  ISSUED:          0  USEFUL:          0  USELESS:          0
L1I USEFUL LOAD PREFETCHES:          0 PREFETCH ISSUED TO LOWER LEVEL:          0  ACCURACY: -nan
L1I TIMELY PREFETCHES:          0 LATE PREFETCHES: 0 DROPPED PREFETCHES: 0
L1I PREFETCHES SAME FILL-ORIGIN LEVEL: 0 DIFFERENT FILL-ORIGIN LEVEL: 0
L1I AVERAGE MISS LATENCY: -nan cycles
L1I RQ	ACCESS:    8078467	FORWARD:          0	MERGED:    2580720	TO_CACHE:    5497747

BTB TOTAL     ACCESS:    5953193  HIT:    5953095  MISS:         98  HIT %:    99.9984  MISS %: 0.00164618   MPKI: 0.00392
BTB BRANCH_DIRECT_JUMP	ACCESS:      85874  HIT:      85848  MISS:         26
BTB BRANCH_INDIRECT	ACCESS:          0  HIT:          0  MISS:          0
BTB BRANCH_CONDITIONAL	ACCESS:    5783213  HIT:    5783164  MISS:         49
BTB BRANCH_DIRECT_CALL	ACCESS:      42053  HIT:      42043  MISS:         10
BTB BRANCH_INDIRECT_CALL	ACCESS:          0  HIT:          0  MISS:          0
BTB BRANCH_RETURN	ACCESS:      42053  HIT:      42040  MISS:         13
BTB BRANCH_OTHER ACCESS:          0  HIT:          0  MISS:          0

L2C TOTAL     ACCESS:    1816433  HIT:      31532  MISS:    1784901  HIT %:    1.73593  MISS %:    98.2641   MPKI: 71.396
L2C LOAD      ACCESS:    1207351  HIT:       1668  MISS:    1205683  HIT %:   0.138154  MISS %:    99.8618   MPKI: 48.2273
L2C DATA LOAD MPKI: 48.2273
L2C INSTRUCTION LOAD MPKI: 0
L2C RFO       ACCESS:        719  HIT:          3  MISS:        716  HIT %:   0.417246  MISS %:    99.5828   MPKI: 0.02864
L2C PREFETCH  ACCESS:     572248  HIT:       1259  MISS:     570989  HIT %:    0.22001  MISS %:      99.78   MPKI: 22.8396
AGUS PREFETCH L1 MISS: 0
L2C DATA PREFETCH MPKI: 22.8396
L2C INSTRUCTION PREFETCH MPKI: 0
L2C WRITEBACK ACCESS:       2773  HIT:       2766  MISS:          7  HIT %:    99.7476  MISS %:   0.252434   MPKI: 0.00028
L2C LOAD TRANSLATION ACCESS:      33338  HIT:      25834  MISS:       7504  HIT %:    77.4912  MISS %:    22.5088   MPKI: 0.30016
L2C TRANSLATION FROM L1D PREFETCHER ACCESS:          4  HIT:          2  MISS:          2  HIT %:         50  MISS %:         50   MPKI: 8e-05
L2C PREFETCH  REQUESTED:          0  ISSUED:          0  USEFUL:        598  USELESS:     570497
L2C USEFUL LOAD PREFETCHES:        598 PREFETCH ISSUED TO LOWER LEVEL:     570989  ACCURACY: 0.104731
L2C TIMELY PREFETCHES:        598 LATE PREFETCHES: 0 DROPPED PREFETCHES: 0
L2C PREFETCHES SAME FILL-ORIGIN LEVEL: 0 DIFFERENT FILL-ORIGIN LEVEL: 0
L2C AVERAGE MISS LATENCY: 119.702 cycles
L2C RQ	ACCESS:    1241411	FORWARD:          0	MERGED:          0	TO_CACHE:    1241411
L2C WQ	ACCESS:       2773	FORWARD:          0	MERGED:          0	TO_CACHE:       2773
L2C PQ	ACCESS:     572248	FORWARD:          0	MERGED:          0	TO_CACHE:     572248

L2C Instructions Evicting Data 0
L2C Translations Evicting Data 7481
L2C Data Evicting Data 1769922
L2C Instructions Evicting Instructions 0
L2C Translations Evicting Instructions 0
L2C Data Evicting Instructions 0
L2C Instructions Evicting Translations 0
L2C Translations Evicting Translations 25
L2C Data Evicting Translations 7466
L2C Dense regions hint from L2: 0
PSCL5 TOTAL     ACCESS:      32696  HIT:      32696  MISS:          0  HIT %:        100  MISS %:          0   MPKI: 0
PSCL5 LOAD TRANSLATION ACCESS:      32694  HIT:      32694  MISS:          0  HIT %:        100  MISS %:          0   MPKI: 0
PSCL5 TRANSLATION FROM L1D PREFETCHER ACCESS:          2  HIT:          2  MISS:          0  HIT %:        100  MISS %:          0   MPKI: 0
PSCL5 PREFETCH  REQUESTED:          0  ISSUED:          0  USEFUL:          0  USELESS:          0
PSCL5 USEFUL LOAD PREFETCHES:          0 PREFETCH ISSUED TO LOWER LEVEL:          0  ACCURACY: -nan
PSCL5 TIMELY PREFETCHES:          0 LATE PREFETCHES: 0 DROPPED PREFETCHES: 0
PSCL5 PREFETCHES SAME FILL-ORIGIN LEVEL: 0 DIFFERENT FILL-ORIGIN LEVEL: 0

PSCL4 TOTAL     ACCESS:      32696  HIT:      32696  MISS:          0  HIT %:        100  MISS %:          0   MPKI: 0
PSCL4 LOAD TRANSLATION ACCESS:      32694  HIT:      32694  MISS:          0  HIT %:        100  MISS %:          0   MPKI: 0
PSCL4 TRANSLATION FROM L1D PREFETCHER ACCESS:          2  HIT:          2  MISS:          0  HIT %:        100  MISS %:          0   MPKI: 0
PSCL4 PREFETCH  REQUESTED:          0  ISSUED:          0  USEFUL:          0  USELESS:          0
PSCL4 USEFUL LOAD PREFETCHES:          0 PREFETCH ISSUED TO LOWER LEVEL:          0  ACCURACY: -nan
PSCL4 TIMELY PREFETCHES:          0 LATE PREFETCHES: 0 DROPPED PREFETCHES: 0
PSCL4 PREFETCHES SAME FILL-ORIGIN LEVEL: 0 DIFFERENT FILL-ORIGIN LEVEL: 0

PSCL3 TOTAL     ACCESS:      32696  HIT:      32696  MISS:          0  HIT %:        100  MISS %:          0   MPKI: 0
PSCL3 LOAD TRANSLATION ACCESS:      32694  HIT:      32694  MISS:          0  HIT %:        100  MISS %:          0   MPKI: 0
PSCL3 TRANSLATION FROM L1D PREFETCHER ACCESS:          2  HIT:          2  MISS:          0  HIT %:        100  MISS %:          0   MPKI: 0
PSCL3 PREFETCH  REQUESTED:          0  ISSUED:          0  USEFUL:          0  USELESS:          0
PSCL3 USEFUL LOAD PREFETCHES:          0 PREFETCH ISSUED TO LOWER LEVEL:          0  ACCURACY: -nan
PSCL3 TIMELY PREFETCHES:          0 LATE PREFETCHES: 0 DROPPED PREFETCHES: 0
PSCL3 PREFETCHES SAME FILL-ORIGIN LEVEL: 0 DIFFERENT FILL-ORIGIN LEVEL: 0

PSCL2 TOTAL     ACCESS:      32696  HIT:      31952  MISS:        744  HIT %:    97.7245  MISS %:    2.27551   MPKI: 0.02976
PSCL2 LOAD TRANSLATION ACCESS:      32696  HIT:      31952  MISS:        744  HIT %:    97.7245  MISS %:    2.27551   MPKI: 0.02976
PSCL2 PREFETCH  REQUESTED:          0  ISSUED:          0  USEFUL:          0  USELESS:          0
PSCL2 USEFUL LOAD PREFETCHES:          0 PREFETCH ISSUED TO LOWER LEVEL:          0  ACCURACY: -nan
PSCL2 TIMELY PREFETCHES:          0 LATE PREFETCHES: 0 DROPPED PREFETCHES: 0
PSCL2 PREFETCHES SAME FILL-ORIGIN LEVEL: 0 DIFFERENT FILL-ORIGIN LEVEL: 0

LLC TOTAL     ACCESS:    1787665  HIT:       3743  MISS:    1783922  HIT %:   0.209379  MISS %:    99.7906   MPKI: 71.3569
LLC LOAD      ACCESS:    1205683  HIT:        493  MISS:    1205190  HIT %:  0.0408897  MISS %:    99.9591   MPKI: 48.2076
LLC RFO       ACCESS:        716  HIT:          3  MISS:        713  HIT %:   0.418994  MISS %:     99.581   MPKI: 0.02852
LLC PREFETCH  ACCESS:     570989  HIT:        146  MISS:     570843  HIT %:  0.0255697  MISS %:    99.9744   MPKI: 22.8337
AGUS PREFETCH L1 MISS: 0
LLC WRITEBACK ACCESS:       2771  HIT:       2766  MISS:          5  HIT %:    99.8196  MISS %:    0.18044   MPKI: 0.0002
LLC LOAD TRANSLATION ACCESS:       7504  HIT:        335  MISS:       7169  HIT %:    4.46429  MISS %:    95.5357   MPKI: 0.28676
LLC TRANSLATION FROM L1D PREFETCHER ACCESS:          2  HIT:          0  MISS:          2  HIT %:          0  MISS %:        100   MPKI: 8e-05
LLC PREFETCH  REQUESTED:          0  ISSUED:          0  USEFUL:        304  USELESS:     570494
LLC USEFUL LOAD PREFETCHES:        304 PREFETCH ISSUED TO LOWER LEVEL:     570843  ACCURACY: 0.0532546
LLC TIMELY PREFETCHES:        304 LATE PREFETCHES: 0 DROPPED PREFETCHES: 0
LLC PREFETCHES SAME FILL-ORIGIN LEVEL: 0 DIFFERENT FILL-ORIGIN LEVEL: 0
LLC AVERAGE MISS LATENCY: 89.7321 cycles
LLC RQ	ACCESS:    1213904	FORWARD:          0	MERGED:          0	TO_CACHE:    1213904
LLC WQ	ACCESS:       2771	FORWARD:          0	MERGED:          0	TO_CACHE:       2771
LLC PQ	ACCESS:     570989	FORWARD:          0	MERGED:          0	TO_CACHE:     570989

LLC Dense regions hint to LLC: 0

RAW hits: 4310
Loads Generated: 8976961
Loads sent to L1D: 8972651
Stores Generated: 370377
Stores sent to L1D: 370377
Major fault: 0 Minor fault: 48857
Allocated PAGES: 48857
CPU 0 L1D IP-based stride prefetcher final stats
Degree: 5

DRAM Statistics
 CHANNEL 0
 RQ ROW_BUFFER_HIT:    1681803  ROW_BUFFER_MISS:     102113
 DBUS_CONGESTED:          1
 WQ ROW_BUFFER_HIT:       1223  ROW_BUFFER_MISS:       1544  FULL:          0

 AVG_CONGESTED_CYCLE: 2
 All warmup complete: 2
Channel 0 Bank busy for read cycles: 0
Channel 0 Bank busy for write cycles: 0
Channel 0
Rank 0
0banks busy for read cycles: 97452230
0banks busy for write cycles: 1557
1banks busy for read cycles: 96305470
1banks busy for write cycles: 990246
2banks busy for read cycles: 1526477
2banks busy for write cycles: 443343
3banks busy for read cycles: 13912
3banks busy for write cycles: 177234
4banks busy for read cycles: 1736
4banks busy for write cycles: 60565
5banks busy for read cycles: 0
5banks busy for write cycles: 19429
6banks busy for read cycles: 0
6banks busy for write cycles: 1298
7banks busy for read cycles: 0
7banks busy for write cycles: 268
8banks busy for read cycles: 0
8banks busy for write cycles: 0

CPU 0 Branch Prediction Accuracy: 99.1323% MPKI: 3.09396 Average ROB Occupancy at Mispredict: 120.296
Branch types
NOT_BRANCH: 16085561 64.3422%
BRANCH_DIRECT_JUMP: 85874 0.343496%
BRANCH_INDIRECT: 0 0%
BRANCH_CONDITIONAL: 8744101 34.9764%
BRANCH_DIRECT_CALL: 42053 0.168212%
BRANCH_INDIRECT_CALL: 0 0%
BRANCH_RETURN: 42053 0.168212%
BRANCH_OTHER: 0 0%

DRAM PAGES: 1048576
Allocated PAGES: 48857
