
*** ChampSim Multicore Out-of-Order Simulator ***

Warmup Instructions: 25000000
Simulation Instructions: 25000000
Number of CPUs: 1
LLC sets: 2048
LLC ways: 16
Off-chip DRAM Size: 4096 MB Channels: 1 Width: 64-bit Data Rate: 6400 MT/s
CPU 0 runs given/traces/trace1.champsimtrace.xz
.xz
CPU 0 Bimodal branch predictor
BTB has LRU replacement policy
ITLB has LRU replacement policy
DTLB has LRU replacement policy
STLB has LRU replacement policy
L1I has LRU replacement policy
CPU 0 L1D Complex-Stride prefetcher initialized
L1D has LRU replacement policy
L2C has LRU replacement policy
LLC has LRU replacement policy
Heartbeat CPU 0 instructions: 10000003 cycles: 2833566 heartbeat IPC: 3.52912 cumulative IPC: 3.52912 (Simulation time: 0 hr 0 min 12 sec) 
Heartbeat CPU 0 instructions: 20000000 cycles: 5658250 heartbeat IPC: 3.54022 cumulative IPC: 3.53466 (Simulation time: 0 hr 0 min 25 sec) 

Warmup complete CPU 0 instructions: 25000004 cycles: 7071978 (Simulation time: 0 hr 0 min 32 sec) 

Heartbeat CPU 0 instructions: 30000002 cycles: 25123316 heartbeat IPC: 0.513741 cumulative IPC: 0.276988 (Simulation time: 0 hr 0 min 48 sec) 
Heartbeat CPU 0 instructions: 40000001 cycles: 62896177 heartbeat IPC: 0.26474 cumulative IPC: 0.268701 (Simulation time: 0 hr 1 min 21 sec) 
Heartbeat CPU 0 instructions: 50000000 cycles: 99549037 heartbeat IPC: 0.27283 cumulative IPC: 0.270337 (Simulation time: 0 hr 1 min 54 sec) 
Finished CPU 0 instructions: 25000000 cycles: 92477061 cumulative IPC: 0.270337 (Simulation time: 0 hr 1 min 54 sec) 

ChampSim completed all CPUs

Region of Interest Statistics

CPU 0 cumulative IPC: 0.270337 instructions: 25000000 cycles: 92477061
ITLB TOTAL     ACCESS:    4471366  HIT:    4471366  MISS:          0  HIT %:        100  MISS %:          0   MPKI: 0
ITLB LOAD TRANSLATION ACCESS:    4471366  HIT:    4471366  MISS:          0  HIT %:        100  MISS %:          0   MPKI: 0
ITLB PREFETCH  REQUESTED:          0  ISSUED:          0  USEFUL:          0  USELESS:          0
ITLB USEFUL LOAD PREFETCHES:          0 PREFETCH ISSUED TO LOWER LEVEL:          0  ACCURACY: -nan
ITLB TIMELY PREFETCHES:          0 LATE PREFETCHES: 0 DROPPED PREFETCHES: 0
ITLB PREFETCHES SAME FILL-ORIGIN LEVEL: 0 DIFFERENT FILL-ORIGIN LEVEL: 0
ITLB AVERAGE MISS LATENCY: -nan cycles
ITLB RQ	ACCESS:    4812732	FORWARD:          0	MERGED:     341367	TO_CACHE:    4471365

DTLB TOTAL     ACCESS:    3725114  HIT:    3062292  MISS:     662822  HIT %:    82.2067  MISS %:    17.7933   MPKI: 26.5129
DTLB LOAD TRANSLATION ACCESS:    3725114  HIT:    3062292  MISS:     662822  HIT %:    82.2067  MISS %:    17.7933   MPKI: 26.5129
DTLB PREFETCH  REQUESTED:          0  ISSUED:          0  USEFUL:          0  USELESS:          0
DTLB USEFUL LOAD PREFETCHES:          0 PREFETCH ISSUED TO LOWER LEVEL:          0  ACCURACY: -nan
DTLB TIMELY PREFETCHES:          0 LATE PREFETCHES: 0 DROPPED PREFETCHES: 0
DTLB PREFETCHES SAME FILL-ORIGIN LEVEL: 0 DIFFERENT FILL-ORIGIN LEVEL: 0
DTLB AVERAGE MISS LATENCY: 58.3486 cycles
DTLB RQ	ACCESS:    4324657	FORWARD:          0	MERGED:     592214	TO_CACHE:    3732443

STLB TOTAL     ACCESS:     792556  HIT:     230525  MISS:     562031  HIT %:    29.0863  MISS %:    70.9137   MPKI: 22.4812
STLB LOAD TRANSLATION ACCESS:     662822  HIT:     100846  MISS:     561976  HIT %:    15.2146  MISS %:    84.7854   MPKI: 22.479
STLB TRANSLATION FROM L1D PREFETCHER ACCESS:     129734  HIT:     129679  MISS:         55  HIT %:    99.9576  MISS %:  0.0423944   MPKI: 0.0022
STLB PREFETCH  REQUESTED:          0  ISSUED:          0  USEFUL:         25  USELESS:         30
STLB USEFUL LOAD PREFETCHES:         25 PREFETCH ISSUED TO LOWER LEVEL:          0  ACCURACY: inf
STLB TIMELY PREFETCHES:         25 LATE PREFETCHES: 0 DROPPED PREFETCHES: 0
STLB PREFETCHES SAME FILL-ORIGIN LEVEL: 0 DIFFERENT FILL-ORIGIN LEVEL: 0
STLB AVERAGE MISS LATENCY: 58.0712 cycles
STLB RQ	ACCESS:     834077	FORWARD:          0	MERGED:      41518	TO_CACHE:     792559

STLB Hit, L1D data hit: 0
STLB Hit, L2C data hit: 0
STLB Hit, LLC data hit: 0
STLB Hit, LLC data miss: 0
STLB STLB hints to L2: 0
L1D TOTAL     ACCESS:    4471168  HIT:    3113554  MISS:    1357614  HIT %:    69.6363  MISS %:    30.3637   MPKI: 54.3046
L1D LOAD      ACCESS:    3195438  HIT:    2049094  MISS:    1146344  HIT %:    64.1256  MISS %:    35.8744   MPKI: 45.8538
L1D RFO       ACCESS:    1108663  HIT:    1039513  MISS:      69150  HIT %:    93.7628  MISS %:    6.23724   MPKI: 2.766
L1D PREFETCH  ACCESS:     167067  HIT:      24947  MISS:     142120  HIT %:    14.9323  MISS %:    85.0677   MPKI: 5.6848
AGUS PREFETCH L1 MISS: 0
L1D PREFETCH  REQUESTED:     344238  ISSUED:     344238  USEFUL:      19195  USELESS:     122928
L1D USEFUL LOAD PREFETCHES:      19195 PREFETCH ISSUED TO LOWER LEVEL:     143776  ACCURACY: 13.3506
L1D TIMELY PREFETCHES:      19195 LATE PREFETCHES: 1654 DROPPED PREFETCHES: 0
L1D PREFETCHES SAME FILL-ORIGIN LEVEL: 143776 DIFFERENT FILL-ORIGIN LEVEL: 0
L1D AVERAGE MISS LATENCY: 70246.9 cycles
L1D RQ	ACCESS:    6158639	FORWARD:          0	MERGED:    2881020	TO_CACHE:    3215992
L1D WQ	ACCESS:    1108674	FORWARD:      61627	MERGED:          9	TO_CACHE:    1108665
L1D PQ	ACCESS:     172986	FORWARD:          0	MERGED:       1734	TO_CACHE:     171252

L1D UNIQUE REGIONS ACCESSED: 0
L1D REGIONS CONFLICTS: 0
L1D Cross Page Prefetch Requests: 0
L1D Same Page Prefetch Requests: 1087041
L1D ROI Sum of L1D PQ occupancy: 2246026
L1D PREFETCHES PUSHED FROM L2C: 0
L1I TOTAL     ACCESS:    4812731  HIT:    4812731  MISS:          0  HIT %:        100  MISS %:          0   MPKI: 0
L1I LOAD      ACCESS:    4812731  HIT:    4812731  MISS:          0  HIT %:        100  MISS %:          0   MPKI: 0
L1I PREFETCH  REQUESTED:          0  ISSUED:          0  USEFUL:          0  USELESS:          0
L1I USEFUL LOAD PREFETCHES:          0 PREFETCH ISSUED TO LOWER LEVEL:          0  ACCURACY: -nan
L1I TIMELY PREFETCHES:          0 LATE PREFETCHES: 0 DROPPED PREFETCHES: 0
L1I PREFETCHES SAME FILL-ORIGIN LEVEL: 0 DIFFERENT FILL-ORIGIN LEVEL: 0
L1I AVERAGE MISS LATENCY: -nan cycles
L1I RQ	ACCESS:    7155960	FORWARD:          0	MERGED:    2343228	TO_CACHE:    4812732

BTB TOTAL     ACCESS:    3283964  HIT:    3283956  MISS:          8  HIT %:    99.9998  MISS %: 0.000243608   MPKI: 0.00032
BTB BRANCH_DIRECT_JUMP	ACCESS:     568311  HIT:     568309  MISS:          2
BTB BRANCH_INDIRECT	ACCESS:          0  HIT:          0  MISS:          0
BTB BRANCH_CONDITIONAL	ACCESS:    1606985  HIT:    1606981  MISS:          4
BTB BRANCH_DIRECT_CALL	ACCESS:     554334  HIT:     554333  MISS:          1
BTB BRANCH_INDIRECT_CALL	ACCESS:          0  HIT:          0  MISS:          0
BTB BRANCH_RETURN	ACCESS:     554334  HIT:     554333  MISS:          1
BTB BRANCH_OTHER ACCESS:          0  HIT:          0  MISS:          0

L2C TOTAL     ACCESS:    2550885  HIT:    1369981  MISS:    1180904  HIT %:    53.7061  MISS %:    46.2939   MPKI: 47.2362
L2C LOAD      ACCESS:    1144690  HIT:     413078  MISS:     731612  HIT %:    36.0865  MISS %:    63.9135   MPKI: 29.2645
L2C DATA LOAD MPKI: 29.2645
L2C INSTRUCTION LOAD MPKI: 0
L2C RFO       ACCESS:      69148  HIT:      34549  MISS:      34599  HIT %:    49.9638  MISS %:    50.0362   MPKI: 1.38396
L2C PREFETCH  ACCESS:     143776  HIT:      29711  MISS:     114065  HIT %:    20.6648  MISS %:    79.3352   MPKI: 4.5626
AGUS PREFETCH L1 MISS: 0
L2C DATA PREFETCH MPKI: 4.5626
L2C INSTRUCTION PREFETCH MPKI: 0
L2C WRITEBACK ACCESS:     554356  HIT:     554356  MISS:          0  HIT %:        100  MISS %:          0   MPKI: 0
L2C LOAD TRANSLATION ACCESS:     638805  HIT:     338248  MISS:     300557  HIT %:    52.9501  MISS %:    47.0499   MPKI: 12.0223
L2C TRANSLATION FROM L1D PREFETCHER ACCESS:        110  HIT:         39  MISS:         71  HIT %:    35.4545  MISS %:    64.5455   MPKI: 0.00284
L2C PREFETCH  REQUESTED:          0  ISSUED:          0  USEFUL:        623  USELESS:     113737
L2C USEFUL LOAD PREFETCHES:        623 PREFETCH ISSUED TO LOWER LEVEL:     114065  ACCURACY: 0.54618
L2C TIMELY PREFETCHES:        623 LATE PREFETCHES: 0 DROPPED PREFETCHES: 0
L2C PREFETCHES SAME FILL-ORIGIN LEVEL: 0 DIFFERENT FILL-ORIGIN LEVEL: 0
L2C AVERAGE MISS LATENCY: 136.841 cycles
L2C RQ	ACCESS:    1852754	FORWARD:          0	MERGED:          0	TO_CACHE:    1852754
L2C WQ	ACCESS:     554356	FORWARD:          0	MERGED:          0	TO_CACHE:     554356
L2C PQ	ACCESS:     143776	FORWARD:          0	MERGED:          0	TO_CACHE:     143776

L2C Instructions Evicting Data 0
L2C Translations Evicting Data 190871
L2C Data Evicting Data 689378
L2C Instructions Evicting Instructions 0
L2C Translations Evicting Instructions 0
L2C Data Evicting Instructions 0
L2C Instructions Evicting Translations 0
L2C Translations Evicting Translations 109757
L2C Data Evicting Translations 190898
L2C Dense regions hint from L2: 0
PSCL5 TOTAL     ACCESS:     562032  HIT:     562032  MISS:          0  HIT %:        100  MISS %:          0   MPKI: 0
PSCL5 LOAD TRANSLATION ACCESS:     561977  HIT:     561977  MISS:          0  HIT %:        100  MISS %:          0   MPKI: 0
PSCL5 TRANSLATION FROM L1D PREFETCHER ACCESS:         55  HIT:         55  MISS:          0  HIT %:        100  MISS %:          0   MPKI: 0
PSCL5 PREFETCH  REQUESTED:          0  ISSUED:          0  USEFUL:          0  USELESS:          0
PSCL5 USEFUL LOAD PREFETCHES:          0 PREFETCH ISSUED TO LOWER LEVEL:          0  ACCURACY: -nan
PSCL5 TIMELY PREFETCHES:          0 LATE PREFETCHES: 0 DROPPED PREFETCHES: 0
PSCL5 PREFETCHES SAME FILL-ORIGIN LEVEL: 0 DIFFERENT FILL-ORIGIN LEVEL: 0

PSCL4 TOTAL     ACCESS:     562032  HIT:     562032  MISS:          0  HIT %:        100  MISS %:          0   MPKI: 0
PSCL4 LOAD TRANSLATION ACCESS:     561977  HIT:     561977  MISS:          0  HIT %:        100  MISS %:          0   MPKI: 0
PSCL4 TRANSLATION FROM L1D PREFETCHER ACCESS:         55  HIT:         55  MISS:          0  HIT %:        100  MISS %:          0   MPKI: 0
PSCL4 PREFETCH  REQUESTED:          0  ISSUED:          0  USEFUL:          0  USELESS:          0
PSCL4 USEFUL LOAD PREFETCHES:          0 PREFETCH ISSUED TO LOWER LEVEL:          0  ACCURACY: -nan
PSCL4 TIMELY PREFETCHES:          0 LATE PREFETCHES: 0 DROPPED PREFETCHES: 0
PSCL4 PREFETCHES SAME FILL-ORIGIN LEVEL: 0 DIFFERENT FILL-ORIGIN LEVEL: 0

PSCL3 TOTAL     ACCESS:     562032  HIT:     562032  MISS:          0  HIT %:        100  MISS %:          0   MPKI: 0
PSCL3 LOAD TRANSLATION ACCESS:     561977  HIT:     561977  MISS:          0  HIT %:        100  MISS %:          0   MPKI: 0
PSCL3 TRANSLATION FROM L1D PREFETCHER ACCESS:         55  HIT:         55  MISS:          0  HIT %:        100  MISS %:          0   MPKI: 0
PSCL3 PREFETCH  REQUESTED:          0  ISSUED:          0  USEFUL:          0  USELESS:          0
PSCL3 USEFUL LOAD PREFETCHES:          0 PREFETCH ISSUED TO LOWER LEVEL:          0  ACCURACY: -nan
PSCL3 TIMELY PREFETCHES:          0 LATE PREFETCHES: 0 DROPPED PREFETCHES: 0
PSCL3 PREFETCHES SAME FILL-ORIGIN LEVEL: 0 DIFFERENT FILL-ORIGIN LEVEL: 0

PSCL2 TOTAL     ACCESS:     562032  HIT:     485148  MISS:      76884  HIT %:    86.3204  MISS %:    13.6796   MPKI: 3.07536
PSCL2 LOAD TRANSLATION ACCESS:     562032  HIT:     485148  MISS:      76884  HIT %:    86.3204  MISS %:    13.6796   MPKI: 3.07536
PSCL2 PREFETCH  REQUESTED:          0  ISSUED:          0  USEFUL:          0  USELESS:          0
PSCL2 USEFUL LOAD PREFETCHES:          0 PREFETCH ISSUED TO LOWER LEVEL:          0  ACCURACY: -nan
PSCL2 TIMELY PREFETCHES:          0 LATE PREFETCHES: 0 DROPPED PREFETCHES: 0
PSCL2 PREFETCHES SAME FILL-ORIGIN LEVEL: 0 DIFFERENT FILL-ORIGIN LEVEL: 0

LLC TOTAL     ACCESS:    1735463  HIT:    1011993  MISS:     723470  HIT %:    58.3126  MISS %:    41.6874   MPKI: 28.9388
LLC LOAD      ACCESS:     731612  HIT:      93007  MISS:     638605  HIT %:    12.7126  MISS %:    87.2874   MPKI: 25.5442
LLC RFO       ACCESS:      34599  HIT:      34595  MISS:          4  HIT %:    99.9884  MISS %:   0.011561   MPKI: 0.00016
LLC PREFETCH  ACCESS:     114065  HIT:      37478  MISS:      76587  HIT %:    32.8567  MISS %:    67.1433   MPKI: 3.06348
AGUS PREFETCH L1 MISS: 0
LLC WRITEBACK ACCESS:     554559  HIT:     554559  MISS:          0  HIT %:        100  MISS %:          0   MPKI: 0
LLC LOAD TRANSLATION ACCESS:     300557  HIT:     292284  MISS:       8273  HIT %:    97.2474  MISS %:    2.75256   MPKI: 0.33092
LLC TRANSLATION FROM L1D PREFETCHER ACCESS:         71  HIT:         70  MISS:          1  HIT %:    98.5915  MISS %:    1.40845   MPKI: 4e-05
LLC PREFETCH  REQUESTED:          0  ISSUED:          0  USEFUL:       1956  USELESS:      76477
LLC USEFUL LOAD PREFETCHES:       1956 PREFETCH ISSUED TO LOWER LEVEL:      76587  ACCURACY: 2.55396
LLC TIMELY PREFETCHES:       1956 LATE PREFETCHES: 0 DROPPED PREFETCHES: 0
LLC PREFETCHES SAME FILL-ORIGIN LEVEL: 0 DIFFERENT FILL-ORIGIN LEVEL: 0
LLC AVERAGE MISS LATENCY: 174.142 cycles
LLC RQ	ACCESS:    1066840	FORWARD:          0	MERGED:          0	TO_CACHE:    1066840
LLC WQ	ACCESS:     554559	FORWARD:          0	MERGED:          0	TO_CACHE:     554559
LLC PQ	ACCESS:     114065	FORWARD:          0	MERGED:          0	TO_CACHE:     114065

LLC Dense regions hint to LLC: 0

RAW hits: 491898
Loads Generated: 6650540
Loads sent to L1D: 6158639
Stores Generated: 1108674
Stores sent to L1D: 1108674
Major fault: 0 Minor fault: 23115
Allocated PAGES: 23115
CPU 0 L1D complex stride prefetcher final stats
Degree: 5

DRAM Statistics
 CHANNEL 0
 RQ ROW_BUFFER_HIT:       5294  ROW_BUFFER_MISS:     718174
 DBUS_CONGESTED:          5
 WQ ROW_BUFFER_HIT:     184378  ROW_BUFFER_MISS:     368229  FULL:          0

 AVG_CONGESTED_CYCLE: 5
 All warmup complete: 2
Channel 0 Bank busy for read cycles: 0
Channel 0 Bank busy for write cycles: 0
Channel 0
Rank 0
0banks busy for read cycles: 2523589
0banks busy for write cycles: 50061
1banks busy for read cycles: 24789855
1banks busy for write cycles: 4710067
2banks busy for read cycles: 15454072
2banks busy for write cycles: 6220403
3banks busy for read cycles: 11129376
3banks busy for write cycles: 7699043
4banks busy for read cycles: 4045896
4banks busy for write cycles: 6733145
5banks busy for read cycles: 454814
5banks busy for write cycles: 4101695
6banks busy for read cycles: 61976
6banks busy for write cycles: 2336744
7banks busy for read cycles: 9449
7banks busy for write cycles: 1341382
8banks busy for read cycles: 1326
8banks busy for write cycles: 814169

CPU 0 Branch Prediction Accuracy: 99.9685% MPKI: 0.04912 Average ROB Occupancy at Mispredict: 156.329
Branch types
NOT_BRANCH: 21105641 84.4226%
BRANCH_DIRECT_JUMP: 568311 2.27324%
BRANCH_INDIRECT: 0 0%
BRANCH_CONDITIONAL: 2217336 8.86934%
BRANCH_DIRECT_CALL: 554334 2.21734%
BRANCH_INDIRECT_CALL: 0 0%
BRANCH_RETURN: 554334 2.21734%
BRANCH_OTHER: 0 0%

DRAM PAGES: 1048576
Allocated PAGES: 23115
