
*** ChampSim Multicore Out-of-Order Simulator ***

Warmup Instructions: 25000000
Simulation Instructions: 25000000
Number of CPUs: 1
LLC sets: 2048
LLC ways: 16
Off-chip DRAM Size: 4096 MB Channels: 1 Width: 64-bit Data Rate: 6400 MT/s
CPU 0 runs given/traces/trace3.champsimtrace.xz
.xz
CPU 0 Bimodal branch predictor
BTB has LRU replacement policy
ITLB has LRU replacement policy
DTLB has LRU replacement policy
STLB has LRU replacement policy
L1I has LRU replacement policy
CPU 0 L1D IP-based stride prefetcher
L1D has LRU replacement policy
L2C has LRU replacement policy
LLC has LRU replacement policy
Heartbeat CPU 0 instructions: 10000001 cycles: 3744400 heartbeat IPC: 2.67066 cumulative IPC: 2.67066 (Simulation time: 0 hr 0 min 57 sec) 
Heartbeat CPU 0 instructions: 20000000 cycles: 7459154 heartbeat IPC: 2.69197 cumulative IPC: 2.68127 (Simulation time: 0 hr 1 min 53 sec) 

Warmup complete CPU 0 instructions: 25000004 cycles: 9346863 (Simulation time: 0 hr 2 min 22 sec) 

Heartbeat CPU 0 instructions: 30000001 cycles: 37144651 heartbeat IPC: 0.336865 cumulative IPC: 0.17987 (Simulation time: 0 hr 3 min 14 sec) 
Retire attempted: 68308560 Failed due to ip: 1669262 Failed due to non completion: 0 Retired instructions: 35738487
Heartbeat CPU 0 instructions: 50000000 cycles: 152629476 heartbeat IPC: 0.168401 cumulative IPC: 0.17448 (Simulation time: 0 hr 6 min 34 sec) 
Finished CPU 0 instructions: 25000000 cycles: 143282615 cumulative IPC: 0.17448 (Simulation time: 0 hr 6 min 34 sec) 

ChampSim completed all CPUs

Region of Interest Statistics

CPU 0 cumulative IPC: 0.17448 instructions: 25000000 cycles: 143282615
ITLB TOTAL     ACCESS:    4035387  HIT:    4035387  MISS:          0  HIT %:        100  MISS %:          0   MPKI: 0
ITLB LOAD TRANSLATION ACCESS:    4035387  HIT:    4035387  MISS:          0  HIT %:        100  MISS %:          0   MPKI: 0
ITLB PREFETCH  REQUESTED:          0  ISSUED:          0  USEFUL:          0  USELESS:          0
ITLB USEFUL LOAD PREFETCHES:          0 PREFETCH ISSUED TO LOWER LEVEL:          0  ACCURACY: -nan
ITLB TIMELY PREFETCHES:          0 LATE PREFETCHES: 0 DROPPED PREFETCHES: 0
ITLB PREFETCHES SAME FILL-ORIGIN LEVEL: 0 DIFFERENT FILL-ORIGIN LEVEL: 0
ITLB AVERAGE MISS LATENCY: -nan cycles
ITLB RQ	ACCESS:    4086659	FORWARD:          0	MERGED:      51273	TO_CACHE:    4035386

DTLB TOTAL     ACCESS:    5221775  HIT:    3017843  MISS:    2203932  HIT %:    57.7934  MISS %:    42.2066   MPKI: 88.1573
DTLB LOAD TRANSLATION ACCESS:    5221775  HIT:    3017843  MISS:    2203932  HIT %:    57.7934  MISS %:    42.2066   MPKI: 88.1573
DTLB PREFETCH  REQUESTED:          0  ISSUED:          0  USEFUL:          0  USELESS:          0
DTLB USEFUL LOAD PREFETCHES:          0 PREFETCH ISSUED TO LOWER LEVEL:          0  ACCURACY: -nan
DTLB TIMELY PREFETCHES:          0 LATE PREFETCHES: 0 DROPPED PREFETCHES: 0
DTLB PREFETCHES SAME FILL-ORIGIN LEVEL: 0 DIFFERENT FILL-ORIGIN LEVEL: 0
DTLB AVERAGE MISS LATENCY: 11.1905 cycles
DTLB RQ	ACCESS:    5750963	FORWARD:          0	MERGED:     494569	TO_CACHE:    5256394

STLB TOTAL     ACCESS:    2935832  HIT:    2906785  MISS:      29047  HIT %:    99.0106  MISS %:   0.989396   MPKI: 1.16188
STLB LOAD TRANSLATION ACCESS:    2203932  HIT:    2174885  MISS:      29047  HIT %:     98.682  MISS %:    1.31796   MPKI: 1.16188
STLB TRANSLATION FROM L1D PREFETCHER ACCESS:     731900  HIT:     731900  MISS:          0  HIT %:        100  MISS %:          0   MPKI: 0
STLB PREFETCH  REQUESTED:          0  ISSUED:          0  USEFUL:          0  USELESS:          0
STLB USEFUL LOAD PREFETCHES:          0 PREFETCH ISSUED TO LOWER LEVEL:          0  ACCURACY: -nan
STLB TIMELY PREFETCHES:          0 LATE PREFETCHES: 0 DROPPED PREFETCHES: 0
STLB PREFETCHES SAME FILL-ORIGIN LEVEL: 0 DIFFERENT FILL-ORIGIN LEVEL: 0
STLB AVERAGE MISS LATENCY: 134.086 cycles
STLB RQ	ACCESS:    5789012	FORWARD:          0	MERGED:    2853180	TO_CACHE:    2935832

STLB Hit, L1D data hit: 0
STLB Hit, L2C data hit: 0
STLB Hit, LLC data hit: 0
STLB Hit, LLC data miss: 0
STLB STLB hints to L2: 0
L1D TOTAL     ACCESS:    7610916  HIT:    3724750  MISS:    3886166  HIT %:    48.9396  MISS %:    51.0604   MPKI: 155.447
L1D LOAD      ACCESS:    5250905  HIT:    2211216  MISS:    3039689  HIT %:    42.1111  MISS %:    57.8889   MPKI: 121.588
L1D RFO       ACCESS:     424160  HIT:     416509  MISS:       7651  HIT %:    98.1962  MISS %:     1.8038   MPKI: 0.30604
L1D PREFETCH  ACCESS:    1935851  HIT:    1097025  MISS:     838826  HIT %:    56.6689  MISS %:    43.3311   MPKI: 33.553
AGUS PREFETCH L1 MISS: 0
L1D PREFETCH  REQUESTED:    7942467  ISSUED:    7942466  USEFUL:     834823  USELESS:       4019
L1D USEFUL LOAD PREFETCHES:     834823 PREFETCH ISSUED TO LOWER LEVEL:    1199434  ACCURACY: 69.6014
L1D TIMELY PREFETCHES:     834823 LATE PREFETCHES: 360602 DROPPED PREFETCHES: 0
L1D PREFETCHES SAME FILL-ORIGIN LEVEL: 1199434 DIFFERENT FILL-ORIGIN LEVEL: 0
L1D AVERAGE MISS LATENCY: 114.27 cycles
L1D RQ	ACCESS:    8951646	FORWARD:          0	MERGED:    3578935	TO_CACHE:    5307826
L1D WQ	ACCESS:     459661	FORWARD:      64885	MERGED:      16524	TO_CACHE:     443137
L1D PQ	ACCESS:    4357386	FORWARD:          0	MERGED:     772306	TO_CACHE:    3585080

L1D UNIQUE REGIONS ACCESSED: 0
L1D REGIONS CONFLICTS: 0
L1D Cross Page Prefetch Requests: 0
L1D Same Page Prefetch Requests: 9583896
L1D ROI Sum of L1D PQ occupancy: 49162801
L1D PREFETCHES PUSHED FROM L2C: 0
L1I TOTAL     ACCESS:    4086660  HIT:    4086660  MISS:          0  HIT %:        100  MISS %:          0   MPKI: 0
L1I LOAD      ACCESS:    4086660  HIT:    4086660  MISS:          0  HIT %:        100  MISS %:          0   MPKI: 0
L1I PREFETCH  REQUESTED:          0  ISSUED:          0  USEFUL:          0  USELESS:          0
L1I USEFUL LOAD PREFETCHES:          0 PREFETCH ISSUED TO LOWER LEVEL:          0  ACCURACY: -nan
L1I TIMELY PREFETCHES:          0 LATE PREFETCHES: 0 DROPPED PREFETCHES: 0
L1I PREFETCHES SAME FILL-ORIGIN LEVEL: 0 DIFFERENT FILL-ORIGIN LEVEL: 0
L1I AVERAGE MISS LATENCY: -nan cycles
L1I RQ	ACCESS:    5484459	FORWARD:          0	MERGED:    1397800	TO_CACHE:    4086659

BTB TOTAL     ACCESS:    7381233  HIT:    7359090  MISS:      22143  HIT %:       99.7  MISS %:   0.299991   MPKI: 0.88572
BTB BRANCH_DIRECT_JUMP	ACCESS:     954613  HIT:     954578  MISS:         35
BTB BRANCH_INDIRECT	ACCESS:          0  HIT:          0  MISS:          0
BTB BRANCH_CONDITIONAL	ACCESS:    6254608  HIT:    6254529  MISS:         79
BTB BRANCH_DIRECT_CALL	ACCESS:      79755  HIT:      79739  MISS:         16
BTB BRANCH_INDIRECT_CALL	ACCESS:       6250  HIT:       6242  MISS:          8
BTB BRANCH_RETURN	ACCESS:      86007  HIT:      64002  MISS:      22005
BTB BRANCH_OTHER ACCESS:          0  HIT:          0  MISS:          0

L2C TOTAL     ACCESS:    3995123  HIT:     510276  MISS:    3484847  HIT %:    12.7725  MISS %:    87.2275   MPKI: 139.394
L2C LOAD      ACCESS:    2679084  HIT:     409293  MISS:    2269791  HIT %:    15.2773  MISS %:    84.7227   MPKI: 90.7916
L2C DATA LOAD MPKI: 90.7916
L2C INSTRUCTION LOAD MPKI: 0
L2C RFO       ACCESS:       7645  HIT:        723  MISS:       6922  HIT %:    9.45716  MISS %:    90.5428   MPKI: 0.27688
L2C PREFETCH  ACCESS:    1199434  HIT:        372  MISS:    1199062  HIT %:  0.0310146  MISS %:     99.969   MPKI: 47.9625
AGUS PREFETCH L1 MISS: 0
L2C DATA PREFETCH MPKI: 47.9625
L2C INSTRUCTION PREFETCH MPKI: 0
L2C WRITEBACK ACCESS:      79749  HIT:      79749  MISS:          0  HIT %:        100  MISS %:          0   MPKI: 0
L2C LOAD TRANSLATION ACCESS:      29211  HIT:      20139  MISS:       9072  HIT %:    68.9432  MISS %:    31.0568   MPKI: 0.36288
L2C PREFETCH  REQUESTED:          0  ISSUED:          0  USEFUL:       1004  USELESS:    1198395
L2C USEFUL LOAD PREFETCHES:       1004 PREFETCH ISSUED TO LOWER LEVEL:    1199062  ACCURACY: 0.0837321
L2C TIMELY PREFETCHES:       1004 LATE PREFETCHES: 0 DROPPED PREFETCHES: 0
L2C PREFETCHES SAME FILL-ORIGIN LEVEL: 0 DIFFERENT FILL-ORIGIN LEVEL: 0
L2C AVERAGE MISS LATENCY: 110.601 cycles
L2C RQ	ACCESS:    2715943	FORWARD:          0	MERGED:          0	TO_CACHE:    2715940
L2C WQ	ACCESS:      79749	FORWARD:          3	MERGED:          0	TO_CACHE:      79749
L2C PQ	ACCESS:    1199434	FORWARD:          0	MERGED:          0	TO_CACHE:    1199434

L2C Instructions Evicting Data 0
L2C Translations Evicting Data 9049
L2C Data Evicting Data 3466744
L2C Instructions Evicting Instructions 0
L2C Translations Evicting Instructions 0
L2C Data Evicting Instructions 0
L2C Instructions Evicting Translations 0
L2C Translations Evicting Translations 23
L2C Data Evicting Translations 9031
L2C Dense regions hint from L2: 0
PSCL5 TOTAL     ACCESS:      29047  HIT:      29047  MISS:          0  HIT %:        100  MISS %:          0   MPKI: 0
PSCL5 LOAD TRANSLATION ACCESS:      29047  HIT:      29047  MISS:          0  HIT %:        100  MISS %:          0   MPKI: 0
PSCL5 PREFETCH  REQUESTED:          0  ISSUED:          0  USEFUL:          0  USELESS:          0
PSCL5 USEFUL LOAD PREFETCHES:          0 PREFETCH ISSUED TO LOWER LEVEL:          0  ACCURACY: -nan
PSCL5 TIMELY PREFETCHES:          0 LATE PREFETCHES: 0 DROPPED PREFETCHES: 0
PSCL5 PREFETCHES SAME FILL-ORIGIN LEVEL: 0 DIFFERENT FILL-ORIGIN LEVEL: 0

PSCL4 TOTAL     ACCESS:      29047  HIT:      29047  MISS:          0  HIT %:        100  MISS %:          0   MPKI: 0
PSCL4 LOAD TRANSLATION ACCESS:      29047  HIT:      29047  MISS:          0  HIT %:        100  MISS %:          0   MPKI: 0
PSCL4 PREFETCH  REQUESTED:          0  ISSUED:          0  USEFUL:          0  USELESS:          0
PSCL4 USEFUL LOAD PREFETCHES:          0 PREFETCH ISSUED TO LOWER LEVEL:          0  ACCURACY: -nan
PSCL4 TIMELY PREFETCHES:          0 LATE PREFETCHES: 0 DROPPED PREFETCHES: 0
PSCL4 PREFETCHES SAME FILL-ORIGIN LEVEL: 0 DIFFERENT FILL-ORIGIN LEVEL: 0

PSCL3 TOTAL     ACCESS:      29047  HIT:      29047  MISS:          0  HIT %:        100  MISS %:          0   MPKI: 0
PSCL3 LOAD TRANSLATION ACCESS:      29047  HIT:      29047  MISS:          0  HIT %:        100  MISS %:          0   MPKI: 0
PSCL3 PREFETCH  REQUESTED:          0  ISSUED:          0  USEFUL:          0  USELESS:          0
PSCL3 USEFUL LOAD PREFETCHES:          0 PREFETCH ISSUED TO LOWER LEVEL:          0  ACCURACY: -nan
PSCL3 TIMELY PREFETCHES:          0 LATE PREFETCHES: 0 DROPPED PREFETCHES: 0
PSCL3 PREFETCHES SAME FILL-ORIGIN LEVEL: 0 DIFFERENT FILL-ORIGIN LEVEL: 0

PSCL2 TOTAL     ACCESS:      29047  HIT:      28747  MISS:        300  HIT %:    98.9672  MISS %:    1.03281   MPKI: 0.012
PSCL2 LOAD TRANSLATION ACCESS:      29047  HIT:      28747  MISS:        300  HIT %:    98.9672  MISS %:    1.03281   MPKI: 0.012
PSCL2 PREFETCH  REQUESTED:          0  ISSUED:          0  USEFUL:          0  USELESS:          0
PSCL2 USEFUL LOAD PREFETCHES:          0 PREFETCH ISSUED TO LOWER LEVEL:          0  ACCURACY: -nan
PSCL2 TIMELY PREFETCHES:          0 LATE PREFETCHES: 0 DROPPED PREFETCHES: 0
PSCL2 PREFETCHES SAME FILL-ORIGIN LEVEL: 0 DIFFERENT FILL-ORIGIN LEVEL: 0

LLC TOTAL     ACCESS:    3560287  HIT:    1565751  MISS:    1994536  HIT %:    43.9782  MISS %:    56.0218   MPKI: 79.7814
LLC LOAD      ACCESS:    2269791  HIT:    1477264  MISS:     792527  HIT %:    65.0837  MISS %:    34.9163   MPKI: 31.7011
LLC RFO       ACCESS:       6922  HIT:       5817  MISS:       1105  HIT %:    84.0364  MISS %:    15.9636   MPKI: 0.0442
LLC PREFETCH  ACCESS:    1199062  HIT:       3364  MISS:    1195698  HIT %:   0.280553  MISS %:    99.7194   MPKI: 47.8279
AGUS PREFETCH L1 MISS: 0
LLC WRITEBACK ACCESS:      75440  HIT:      75323  MISS:        117  HIT %:    99.8449  MISS %:    0.15509   MPKI: 0.00468
LLC LOAD TRANSLATION ACCESS:       9072  HIT:       3983  MISS:       5089  HIT %:    43.9043  MISS %:    56.0957   MPKI: 0.20356
LLC PREFETCH  REQUESTED:          0  ISSUED:          0  USEFUL:        640  USELESS:    1196651
LLC USEFUL LOAD PREFETCHES:        640 PREFETCH ISSUED TO LOWER LEVEL:    1195698  ACCURACY: 0.0535252
LLC TIMELY PREFETCHES:        640 LATE PREFETCHES: 0 DROPPED PREFETCHES: 0
LLC PREFETCHES SAME FILL-ORIGIN LEVEL: 0 DIFFERENT FILL-ORIGIN LEVEL: 0
LLC AVERAGE MISS LATENCY: 140.195 cycles
LLC RQ	ACCESS:    2285785	FORWARD:          0	MERGED:          0	TO_CACHE:    2285785
LLC WQ	ACCESS:      75440	FORWARD:          0	MERGED:          0	TO_CACHE:      75440
LLC PQ	ACCESS:    1199062	FORWARD:          0	MERGED:          0	TO_CACHE:    1199062

LLC Dense regions hint to LLC: 0

RAW hits: 62681
Loads Generated: 9014327
Loads sent to L1D: 8951646
Stores Generated: 459660
Stores sent to L1D: 459661
Major fault: 0 Minor fault: 44120
Allocated PAGES: 44120
CPU 0 L1D IP-based stride prefetcher final stats
Degree: 5

DRAM Statistics
 CHANNEL 0
 RQ ROW_BUFFER_HIT:     923833  ROW_BUFFER_MISS:    1070570
 DBUS_CONGESTED:        250
 WQ ROW_BUFFER_HIT:      10157  ROW_BUFFER_MISS:      29582  FULL:          0

 AVG_CONGESTED_CYCLE: 4
 All warmup complete: 2
Channel 0 Bank busy for read cycles: 0
Channel 0 Bank busy for write cycles: 0
Channel 0
Rank 0
0banks busy for read cycles: 52450442
0banks busy for write cycles: 14915
1banks busy for read cycles: 36072848
1banks busy for write cycles: 2772210
2banks busy for read cycles: 19667227
2banks busy for write cycles: 571120
3banks busy for read cycles: 11768256
3banks busy for write cycles: 228326
4banks busy for read cycles: 8418249
4banks busy for write cycles: 138182
5banks busy for read cycles: 5126578
5banks busy for write cycles: 117665
6banks busy for read cycles: 2853717
6banks busy for write cycles: 101151
7banks busy for read cycles: 1418749
7banks busy for write cycles: 129537
8banks busy for read cycles: 1216201
8banks busy for write cycles: 217243

CPU 0 Branch Prediction Accuracy: 96.3142% MPKI: 11.2642 Average ROB Occupancy at Mispredict: 45.2901
Branch types
NOT_BRANCH: 17359361 69.4374%
BRANCH_DIRECT_JUMP: 954613 3.81845%
BRANCH_INDIRECT: 0 0%
BRANCH_CONDITIONAL: 6513665 26.0547%
BRANCH_DIRECT_CALL: 79755 0.31902%
BRANCH_INDIRECT_CALL: 6250 0.025%
BRANCH_RETURN: 86007 0.344028%
BRANCH_OTHER: 0 0%

DRAM PAGES: 1048576
Allocated PAGES: 44120
