
*** ChampSim Multicore Out-of-Order Simulator ***

Warmup Instructions: 25000000
Simulation Instructions: 25000000
Number of CPUs: 1
LLC sets: 2048
LLC ways: 16
Off-chip DRAM Size: 4096 MB Channels: 1 Width: 64-bit Data Rate: 6400 MT/s
CPU 0 runs given/traces/trace1.champsimtrace.xz
.xz
CPU 0 Bimodal branch predictor
BTB has LRU replacement policy
ITLB has LRU replacement policy
DTLB has LRU replacement policy
STLB has LRU replacement policy
L1I has LRU replacement policy
CPU 0 L1D Optimized prefetcher
L1D has LRU replacement policy
L2C has LRU replacement policy
LLC has LRU replacement policy
Heartbeat CPU 0 instructions: 10000003 cycles: 2830061 heartbeat IPC: 3.53349 cumulative IPC: 3.53349 (Simulation time: 0 hr 0 min 27 sec) 
Heartbeat CPU 0 instructions: 20000003 cycles: 5650207 heartbeat IPC: 3.54592 cumulative IPC: 3.53969 (Simulation time: 0 hr 0 min 55 sec) 

Warmup complete CPU 0 instructions: 25000004 cycles: 7064357 (Simulation time: 0 hr 1 min 8 sec) 

IP stride coverage after phase end: 0 weight: 0
CPLX coverage after phase end: 0.00185529 weight: 0.0149351
NL stride coverage after phase end: 0.00923451 weight: 0.00669674
Best prefetcher: 2
Heartbeat CPU 0 instructions: 30000002 cycles: 19587944 heartbeat IPC: 0.717477 cumulative IPC: 0.399246 (Simulation time: 0 hr 1 min 46 sec) 
Heartbeat CPU 0 instructions: 40000002 cycles: 46753021 heartbeat IPC: 0.36812 cumulative IPC: 0.377942 (Simulation time: 0 hr 3 min 3 sec) 
Heartbeat CPU 0 instructions: 50000000 cycles: 71044678 heartbeat IPC: 0.411664 cumulative IPC: 0.390745 (Simulation time: 0 hr 4 min 17 sec) 
Finished CPU 0 instructions: 25000000 cycles: 63980322 cumulative IPC: 0.390745 (Simulation time: 0 hr 4 min 17 sec) 

ChampSim completed all CPUs

Region of Interest Statistics

CPU 0 cumulative IPC: 0.390745 instructions: 25000000 cycles: 63980322
ITLB TOTAL     ACCESS:    4492228  HIT:    4492228  MISS:          0  HIT %:        100  MISS %:          0   MPKI: 0
ITLB LOAD TRANSLATION ACCESS:    4492228  HIT:    4492228  MISS:          0  HIT %:        100  MISS %:          0   MPKI: 0
ITLB PREFETCH  REQUESTED:          0  ISSUED:          0  USEFUL:          0  USELESS:          0
ITLB USEFUL LOAD PREFETCHES:          0 PREFETCH ISSUED TO LOWER LEVEL:          0  ACCURACY: -nan
ITLB TIMELY PREFETCHES:          0 LATE PREFETCHES: 0 DROPPED PREFETCHES: 0
ITLB PREFETCHES SAME FILL-ORIGIN LEVEL: 0 DIFFERENT FILL-ORIGIN LEVEL: 0
ITLB AVERAGE MISS LATENCY: -nan cycles
ITLB RQ	ACCESS:    4831285	FORWARD:          0	MERGED:     339058	TO_CACHE:    4492227

DTLB TOTAL     ACCESS:    3801827  HIT:    3139156  MISS:     662671  HIT %:    82.5697  MISS %:    17.4303   MPKI: 26.5068
DTLB LOAD TRANSLATION ACCESS:    3801827  HIT:    3139156  MISS:     662671  HIT %:    82.5697  MISS %:    17.4303   MPKI: 26.5068
DTLB PREFETCH  REQUESTED:          0  ISSUED:          0  USEFUL:          0  USELESS:          0
DTLB USEFUL LOAD PREFETCHES:          0 PREFETCH ISSUED TO LOWER LEVEL:          0  ACCURACY: -nan
DTLB TIMELY PREFETCHES:          0 LATE PREFETCHES: 0 DROPPED PREFETCHES: 0
DTLB PREFETCHES SAME FILL-ORIGIN LEVEL: 0 DIFFERENT FILL-ORIGIN LEVEL: 0
DTLB AVERAGE MISS LATENCY: 80.4284 cycles
DTLB RQ	ACCESS:    4395575	FORWARD:          0	MERGED:     590010	TO_CACHE:    3805565

STLB TOTAL     ACCESS:    3214249  HIT:    2652082  MISS:     562167  HIT %:    82.5102  MISS %:    17.4898   MPKI: 22.4867
STLB LOAD TRANSLATION ACCESS:     662671  HIT:     100706  MISS:     561965  HIT %:     15.197  MISS %:     84.803   MPKI: 22.4786
STLB TRANSLATION FROM L1D PREFETCHER ACCESS:    2551578  HIT:    2551376  MISS:        202  HIT %:    99.9921  MISS %: 0.00791667   MPKI: 0.00808
STLB PREFETCH  REQUESTED:          0  ISSUED:          0  USEFUL:        202  USELESS:          0
STLB USEFUL LOAD PREFETCHES:        202 PREFETCH ISSUED TO LOWER LEVEL:          0  ACCURACY: inf
STLB TIMELY PREFETCHES:        202 LATE PREFETCHES: 0 DROPPED PREFETCHES: 0
STLB PREFETCHES SAME FILL-ORIGIN LEVEL: 0 DIFFERENT FILL-ORIGIN LEVEL: 0
STLB AVERAGE MISS LATENCY: 84.1122 cycles
STLB RQ	ACCESS:   12686208	FORWARD:          0	MERGED:    9471954	TO_CACHE:    3214254

STLB Hit, L1D data hit: 0
STLB Hit, L2C data hit: 0
STLB Hit, LLC data hit: 0
STLB Hit, LLC data miss: 0
STLB STLB hints to L2: 0
L1D TOTAL     ACCESS:   15916450  HIT:   10529719  MISS:    5386731  HIT %:    66.1562  MISS %:    33.8438   MPKI: 215.469
L1D LOAD      ACCESS:    3265671  HIT:    2039977  MISS:    1225694  HIT %:    62.4673  MISS %:    37.5327   MPKI: 49.0278
L1D RFO       ACCESS:    1108664  HIT:    1039304  MISS:      69360  HIT %:    93.7438  MISS %:    6.25618   MPKI: 2.7744
L1D PREFETCH  ACCESS:   11542115  HIT:    7450438  MISS:    4091677  HIT %:      64.55  MISS %:      35.45   MPKI: 163.667
AGUS PREFETCH L1 MISS: 0
L1D PREFETCH  REQUESTED:   27895234  ISSUED:   27818580  USEFUL:      18863  USELESS:    4072235
L1D USEFUL LOAD PREFETCHES:      18863 PREFETCH ISSUED TO LOWER LEVEL:    4095404  ACCURACY: 0.460589
L1D TIMELY PREFETCHES:      18863 LATE PREFETCHES: 3724 DROPPED PREFETCHES: 0
L1D PREFETCHES SAME FILL-ORIGIN LEVEL: 4095404 DIFFERENT FILL-ORIGIN LEVEL: 0
L1D AVERAGE MISS LATENCY: 68.5366 cycles
L1D RQ	ACCESS:    6149691	FORWARD:          0	MERGED:    2810096	TO_CACHE:    3286909
L1D WQ	ACCESS:    1108674	FORWARD:      52686	MERGED:          8	TO_CACHE:    1108666
L1D PQ	ACCESS:   15795047	FORWARD:          0	MERGED:    3771514	TO_CACHE:   12023533

L1D UNIQUE REGIONS ACCESSED: 0
L1D REGIONS CONFLICTS: 0
L1D Cross Page Prefetch Requests: 0
L1D Same Page Prefetch Requests: 15795047
L1D ROI Sum of L1D PQ occupancy: 167312485
L1D PREFETCHES PUSHED FROM L2C: 0
L1I TOTAL     ACCESS:    4831285  HIT:    4831285  MISS:          0  HIT %:        100  MISS %:          0   MPKI: 0
L1I LOAD      ACCESS:    4831285  HIT:    4831285  MISS:          0  HIT %:        100  MISS %:          0   MPKI: 0
L1I PREFETCH  REQUESTED:          0  ISSUED:          0  USEFUL:          0  USELESS:          0
L1I USEFUL LOAD PREFETCHES:          0 PREFETCH ISSUED TO LOWER LEVEL:          0  ACCURACY: -nan
L1I TIMELY PREFETCHES:          0 LATE PREFETCHES: 0 DROPPED PREFETCHES: 0
L1I PREFETCHES SAME FILL-ORIGIN LEVEL: 0 DIFFERENT FILL-ORIGIN LEVEL: 0
L1I AVERAGE MISS LATENCY: -nan cycles
L1I RQ	ACCESS:    7353264	FORWARD:          0	MERGED:    2521979	TO_CACHE:    4831285

BTB TOTAL     ACCESS:    3283969  HIT:    3283961  MISS:          8  HIT %:    99.9998  MISS %: 0.000243608   MPKI: 0.00032
BTB BRANCH_DIRECT_JUMP	ACCESS:     568311  HIT:     568309  MISS:          2
BTB BRANCH_INDIRECT	ACCESS:          0  HIT:          0  MISS:          0
BTB BRANCH_CONDITIONAL	ACCESS:    1606988  HIT:    1606984  MISS:          4
BTB BRANCH_DIRECT_CALL	ACCESS:     554335  HIT:     554334  MISS:          1
BTB BRANCH_INDIRECT_CALL	ACCESS:          0  HIT:          0  MISS:          0
BTB BRANCH_RETURN	ACCESS:     554335  HIT:     554334  MISS:          1
BTB BRANCH_OTHER ACCESS:          0  HIT:          0  MISS:          0

L2C TOTAL     ACCESS:    6580513  HIT:    1937608  MISS:    4642905  HIT %:    29.4446  MISS %:    70.5554   MPKI: 185.716
L2C LOAD      ACCESS:    1221970  HIT:     300291  MISS:     921679  HIT %:    24.5743  MISS %:    75.4257   MPKI: 36.8672
L2C DATA LOAD MPKI: 36.8672
L2C INSTRUCTION LOAD MPKI: 0
L2C RFO       ACCESS:      69360  HIT:       1097  MISS:      68263  HIT %:     1.5816  MISS %:    98.4184   MPKI: 2.73052
L2C PREFETCH  ACCESS:    4095401  HIT:    1000187  MISS:    3095214  HIT %:    24.4222  MISS %:    75.5778   MPKI: 123.809
AGUS PREFETCH L1 MISS: 0
L2C DATA PREFETCH MPKI: 123.809
L2C INSTRUCTION PREFETCH MPKI: 0
L2C WRITEBACK ACCESS:     554589  HIT:     554584  MISS:          5  HIT %:    99.9991  MISS %: 0.000901569   MPKI: 0.0002
L2C LOAD TRANSLATION ACCESS:     638789  HIT:      81449  MISS:     557340  HIT %:    12.7505  MISS %:    87.2495   MPKI: 22.2936
L2C TRANSLATION FROM L1D PREFETCHER ACCESS:        404  HIT:          0  MISS:        404  HIT %:          0  MISS %:        100   MPKI: 0.01616
L2C PREFETCH  REQUESTED:          0  ISSUED:          0  USEFUL:       4024  USELESS:    3086200
L2C USEFUL LOAD PREFETCHES:       4024 PREFETCH ISSUED TO LOWER LEVEL:    3095217  ACCURACY: 0.130007
L2C TIMELY PREFETCHES:       4024 LATE PREFETCHES: 0 DROPPED PREFETCHES: 0
L2C PREFETCHES SAME FILL-ORIGIN LEVEL: 0 DIFFERENT FILL-ORIGIN LEVEL: 0
L2C AVERAGE MISS LATENCY: 65.2803 cycles
L2C RQ	ACCESS:    1930524	FORWARD:          0	MERGED:          0	TO_CACHE:    1930524
L2C WQ	ACCESS:     554589	FORWARD:          0	MERGED:          0	TO_CACHE:     554589
L2C PQ	ACCESS:    4095404	FORWARD:          0	MERGED:          0	TO_CACHE:    4095404

L2C Instructions Evicting Data 0
L2C Translations Evicting Data 481994
L2C Data Evicting Data 3601273
L2C Instructions Evicting Instructions 0
L2C Translations Evicting Instructions 0
L2C Data Evicting Instructions 0
L2C Instructions Evicting Translations 0
L2C Translations Evicting Translations 75750
L2C Data Evicting Translations 483883
L2C Dense regions hint from L2: 0
PSCL5 TOTAL     ACCESS:     562169  HIT:     562169  MISS:          0  HIT %:        100  MISS %:          0   MPKI: 0
PSCL5 LOAD TRANSLATION ACCESS:     561967  HIT:     561967  MISS:          0  HIT %:        100  MISS %:          0   MPKI: 0
PSCL5 TRANSLATION FROM L1D PREFETCHER ACCESS:        202  HIT:        202  MISS:          0  HIT %:        100  MISS %:          0   MPKI: 0
PSCL5 PREFETCH  REQUESTED:          0  ISSUED:          0  USEFUL:          0  USELESS:          0
PSCL5 USEFUL LOAD PREFETCHES:          0 PREFETCH ISSUED TO LOWER LEVEL:          0  ACCURACY: -nan
PSCL5 TIMELY PREFETCHES:          0 LATE PREFETCHES: 0 DROPPED PREFETCHES: 0
PSCL5 PREFETCHES SAME FILL-ORIGIN LEVEL: 0 DIFFERENT FILL-ORIGIN LEVEL: 0

PSCL4 TOTAL     ACCESS:     562169  HIT:     562169  MISS:          0  HIT %:        100  MISS %:          0   MPKI: 0
PSCL4 LOAD TRANSLATION ACCESS:     561967  HIT:     561967  MISS:          0  HIT %:        100  MISS %:          0   MPKI: 0
PSCL4 TRANSLATION FROM L1D PREFETCHER ACCESS:        202  HIT:        202  MISS:          0  HIT %:        100  MISS %:          0   MPKI: 0
PSCL4 PREFETCH  REQUESTED:          0  ISSUED:          0  USEFUL:          0  USELESS:          0
PSCL4 USEFUL LOAD PREFETCHES:          0 PREFETCH ISSUED TO LOWER LEVEL:          0  ACCURACY: -nan
PSCL4 TIMELY PREFETCHES:          0 LATE PREFETCHES: 0 DROPPED PREFETCHES: 0
PSCL4 PREFETCHES SAME FILL-ORIGIN LEVEL: 0 DIFFERENT FILL-ORIGIN LEVEL: 0

PSCL3 TOTAL     ACCESS:     562169  HIT:     562169  MISS:          0  HIT %:        100  MISS %:          0   MPKI: 0
PSCL3 LOAD TRANSLATION ACCESS:     561967  HIT:     561967  MISS:          0  HIT %:        100  MISS %:          0   MPKI: 0
PSCL3 TRANSLATION FROM L1D PREFETCHER ACCESS:        202  HIT:        202  MISS:          0  HIT %:        100  MISS %:          0   MPKI: 0
PSCL3 PREFETCH  REQUESTED:          0  ISSUED:          0  USEFUL:          0  USELESS:          0
PSCL3 USEFUL LOAD PREFETCHES:          0 PREFETCH ISSUED TO LOWER LEVEL:          0  ACCURACY: -nan
PSCL3 TIMELY PREFETCHES:          0 LATE PREFETCHES: 0 DROPPED PREFETCHES: 0
PSCL3 PREFETCHES SAME FILL-ORIGIN LEVEL: 0 DIFFERENT FILL-ORIGIN LEVEL: 0

PSCL2 TOTAL     ACCESS:     562168  HIT:     485143  MISS:      77025  HIT %:    86.2986  MISS %:    13.7014   MPKI: 3.081
PSCL2 LOAD TRANSLATION ACCESS:     562168  HIT:     485143  MISS:      77025  HIT %:    86.2986  MISS %:    13.7014   MPKI: 3.081
PSCL2 PREFETCH  REQUESTED:          0  ISSUED:          0  USEFUL:          0  USELESS:          0
PSCL2 USEFUL LOAD PREFETCHES:          0 PREFETCH ISSUED TO LOWER LEVEL:          0  ACCURACY: -nan
PSCL2 TIMELY PREFETCHES:          0 LATE PREFETCHES: 0 DROPPED PREFETCHES: 0
PSCL2 PREFETCHES SAME FILL-ORIGIN LEVEL: 0 DIFFERENT FILL-ORIGIN LEVEL: 0

LLC TOTAL     ACCESS:    5200235  HIT:    4432787  MISS:     767448  HIT %:    85.2421  MISS %:    14.7579   MPKI: 30.6979
LLC LOAD      ACCESS:     921679  HIT:     877754  MISS:      43925  HIT %:    95.2342  MISS %:    4.76576   MPKI: 1.757
LLC RFO       ACCESS:      68263  HIT:      67340  MISS:        923  HIT %:    98.6479  MISS %:    1.35212   MPKI: 0.03692
LLC PREFETCH  ACCESS:    3095214  HIT:    2387524  MISS:     707690  HIT %:     77.136  MISS %:     22.864   MPKI: 28.3076
AGUS PREFETCH L1 MISS: 0
LLC WRITEBACK ACCESS:     557335  HIT:     557335  MISS:          0  HIT %:        100  MISS %:          0   MPKI: 0
LLC LOAD TRANSLATION ACCESS:     557340  HIT:     542434  MISS:      14906  HIT %:    97.3255  MISS %:    2.67449   MPKI: 0.59624
LLC TRANSLATION FROM L1D PREFETCHER ACCESS:        404  HIT:        400  MISS:          4  HIT %:    99.0099  MISS %:   0.990099   MPKI: 0.00016
LLC PREFETCH  REQUESTED:          0  ISSUED:          0  USEFUL:     599417  USELESS:      93743
LLC USEFUL LOAD PREFETCHES:     599417 PREFETCH ISSUED TO LOWER LEVEL:     707693  ACCURACY: 84.7001
LLC TIMELY PREFETCHES:     599417 LATE PREFETCHES: 0 DROPPED PREFETCHES: 0
LLC PREFETCHES SAME FILL-ORIGIN LEVEL: 0 DIFFERENT FILL-ORIGIN LEVEL: 0
LLC AVERAGE MISS LATENCY: 209.775 cycles
LLC RQ	ACCESS:    1547686	FORWARD:          0	MERGED:          0	TO_CACHE:    1547686
LLC WQ	ACCESS:     557335	FORWARD:          0	MERGED:          0	TO_CACHE:     557335
LLC PQ	ACCESS:    3095217	FORWARD:          0	MERGED:          0	TO_CACHE:    3095217

LLC Dense regions hint to LLC: 0

RAW hits: 500848
Loads Generated: 6650541
Loads sent to L1D: 6149691
Stores Generated: 1108674
Stores sent to L1D: 1108674
Major fault: 0 Minor fault: 23115
Allocated PAGES: 23115
CPU 0 L1D optimized prefetcher final stats
Degree: 5
Total loads7133516

DRAM Statistics
 CHANNEL 0
 RQ ROW_BUFFER_HIT:       9874  ROW_BUFFER_MISS:     757575
 DBUS_CONGESTED:         11
 WQ ROW_BUFFER_HIT:     155478  ROW_BUFFER_MISS:     413092  FULL:          0

 AVG_CONGESTED_CYCLE: 4
 All warmup complete: 2
Channel 0 Bank busy for read cycles: 0
Channel 0 Bank busy for write cycles: 0
Channel 0
Rank 0
0banks busy for read cycles: 152518
0banks busy for write cycles: 328
1banks busy for read cycles: 12171080
1banks busy for write cycles: 166855
2banks busy for read cycles: 14917922
2banks busy for write cycles: 177248
3banks busy for read cycles: 10278390
3banks busy for write cycles: 201100
4banks busy for read cycles: 4442658
4banks busy for write cycles: 203235
5banks busy for read cycles: 1210645
5banks busy for write cycles: 186264
6banks busy for read cycles: 1839675
6banks busy for write cycles: 205393
7banks busy for read cycles: 745033
7banks busy for write cycles: 943175
8banks busy for read cycles: 277624
8banks busy for write cycles: 15861180

CPU 0 Branch Prediction Accuracy: 99.9685% MPKI: 0.04912 Average ROB Occupancy at Mispredict: 157.09
Branch types
NOT_BRANCH: 21105674 84.4227%
BRANCH_DIRECT_JUMP: 568311 2.27324%
BRANCH_INDIRECT: 0 0%
BRANCH_CONDITIONAL: 2217340 8.86936%
BRANCH_DIRECT_CALL: 554335 2.21734%
BRANCH_INDIRECT_CALL: 0 0%
BRANCH_RETURN: 554335 2.21734%
BRANCH_OTHER: 0 0%

DRAM PAGES: 1048576
Allocated PAGES: 23115
