
*** ChampSim Multicore Out-of-Order Simulator ***

Warmup Instructions: 25000000
Simulation Instructions: 25000000
Number of CPUs: 1
LLC sets: 2048
LLC ways: 16
Off-chip DRAM Size: 4096 MB Channels: 1 Width: 64-bit Data Rate: 6400 MT/s
CPU 0 runs given/traces/trace1.champsimtrace.xz
.xz
CPU 0 Bimodal branch predictor
BTB has LRU replacement policy
ITLB has LRU replacement policy
DTLB has LRU replacement policy
STLB has LRU replacement policy
L1I has LRU replacement policy
CPU 0 L1D Next-line prefetcher
L1D has LRU replacement policy
L2C has LRU replacement policy
LLC has LRU replacement policy
Heartbeat CPU 0 instructions: 10000003 cycles: 2886806 heartbeat IPC: 3.46404 cumulative IPC: 3.46404 (Simulation time: 0 hr 0 min 34 sec) 
Heartbeat CPU 0 instructions: 20000003 cycles: 5763592 heartbeat IPC: 3.4761 cumulative IPC: 3.47006 (Simulation time: 0 hr 1 min 9 sec) 

Warmup complete CPU 0 instructions: 25000004 cycles: 7207533 (Simulation time: 0 hr 1 min 26 sec) 

Heartbeat CPU 0 instructions: 30000002 cycles: 18764989 heartbeat IPC: 0.769148 cumulative IPC: 0.432621 (Simulation time: 0 hr 2 min 3 sec) 
Heartbeat CPU 0 instructions: 40000002 cycles: 45883999 heartbeat IPC: 0.368745 cumulative IPC: 0.387833 (Simulation time: 0 hr 3 min 20 sec) 
Heartbeat CPU 0 instructions: 50000000 cycles: 70070836 heartbeat IPC: 0.413448 cumulative IPC: 0.397688 (Simulation time: 0 hr 4 min 33 sec) 
Finished CPU 0 instructions: 25000000 cycles: 62863304 cumulative IPC: 0.397688 (Simulation time: 0 hr 4 min 33 sec) 

ChampSim completed all CPUs

Region of Interest Statistics

CPU 0 cumulative IPC: 0.397688 instructions: 25000000 cycles: 62863304
ITLB TOTAL     ACCESS:    4489562  HIT:    4489562  MISS:          0  HIT %:        100  MISS %:          0   MPKI: 0
ITLB LOAD TRANSLATION ACCESS:    4489562  HIT:    4489562  MISS:          0  HIT %:        100  MISS %:          0   MPKI: 0
ITLB PREFETCH  REQUESTED:          0  ISSUED:          0  USEFUL:          0  USELESS:          0
ITLB USEFUL LOAD PREFETCHES:          0 PREFETCH ISSUED TO LOWER LEVEL:          0  ACCURACY: -nan
ITLB TIMELY PREFETCHES:          0 LATE PREFETCHES: 0 DROPPED PREFETCHES: 0
ITLB PREFETCHES SAME FILL-ORIGIN LEVEL: 0 DIFFERENT FILL-ORIGIN LEVEL: 0
ITLB AVERAGE MISS LATENCY: -nan cycles
ITLB RQ	ACCESS:    4829917	FORWARD:          0	MERGED:     340356	TO_CACHE:    4489561

DTLB TOTAL     ACCESS:    3803724  HIT:    3141061  MISS:     662663  HIT %:    82.5786  MISS %:    17.4214   MPKI: 26.5065
DTLB LOAD TRANSLATION ACCESS:    3803724  HIT:    3141061  MISS:     662663  HIT %:    82.5786  MISS %:    17.4214   MPKI: 26.5065
DTLB PREFETCH  REQUESTED:          0  ISSUED:          0  USEFUL:          0  USELESS:          0
DTLB USEFUL LOAD PREFETCHES:          0 PREFETCH ISSUED TO LOWER LEVEL:          0  ACCURACY: -nan
DTLB TIMELY PREFETCHES:          0 LATE PREFETCHES: 0 DROPPED PREFETCHES: 0
DTLB PREFETCHES SAME FILL-ORIGIN LEVEL: 0 DIFFERENT FILL-ORIGIN LEVEL: 0
DTLB AVERAGE MISS LATENCY: 79.9162 cycles
DTLB RQ	ACCESS:    4397319	FORWARD:          0	MERGED:     589884	TO_CACHE:    3807435

STLB TOTAL     ACCESS:    3231601  HIT:    2669436  MISS:     562165  HIT %:    82.6041  MISS %:    17.3959   MPKI: 22.4866
STLB LOAD TRANSLATION ACCESS:     662663  HIT:     100699  MISS:     561964  HIT %:    15.1961  MISS %:    84.8039   MPKI: 22.4786
STLB TRANSLATION FROM L1D PREFETCHER ACCESS:    2568938  HIT:    2568737  MISS:        201  HIT %:    99.9922  MISS %: 0.00782424   MPKI: 0.00804
STLB PREFETCH  REQUESTED:          0  ISSUED:          0  USEFUL:        201  USELESS:          0
STLB USEFUL LOAD PREFETCHES:        201 PREFETCH ISSUED TO LOWER LEVEL:          0  ACCURACY: inf
STLB TIMELY PREFETCHES:        201 LATE PREFETCHES: 0 DROPPED PREFETCHES: 0
STLB PREFETCHES SAME FILL-ORIGIN LEVEL: 0 DIFFERENT FILL-ORIGIN LEVEL: 0
STLB AVERAGE MISS LATENCY: 83.5064 cycles
STLB RQ	ACCESS:   12768159	FORWARD:          0	MERGED:    9536554	TO_CACHE:    3231605

STLB Hit, L1D data hit: 0
STLB Hit, L2C data hit: 0
STLB Hit, LLC data hit: 0
STLB Hit, LLC data miss: 0
STLB STLB hints to L2: 0
L1D TOTAL     ACCESS:   15996138  HIT:   10577956  MISS:    5418182  HIT %:    66.1282  MISS %:    33.8718   MPKI: 216.727
L1D LOAD      ACCESS:    3267392  HIT:    2039820  MISS:    1227572  HIT %:    62.4296  MISS %:    37.5704   MPKI: 49.1029
L1D RFO       ACCESS:    1108670  HIT:    1039310  MISS:      69360  HIT %:    93.7439  MISS %:    6.25614   MPKI: 2.7744
L1D PREFETCH  ACCESS:   11620076  HIT:    7498826  MISS:    4121250  HIT %:    64.5334  MISS %:    35.4666   MPKI: 164.85
AGUS PREFETCH L1 MISS: 0
L1D PREFETCH  REQUESTED:   28083298  ISSUED:   28005974  USEFUL:      18851  USELESS:    4102357
L1D USEFUL LOAD PREFETCHES:      18851 PREFETCH ISSUED TO LOWER LEVEL:    4125010  ACCURACY: 0.456993
L1D TIMELY PREFETCHES:      18851 LATE PREFETCHES: 3761 DROPPED PREFETCHES: 0
L1D PREFETCHES SAME FILL-ORIGIN LEVEL: 4125010 DIFFERENT FILL-ORIGIN LEVEL: 0
L1D AVERAGE MISS LATENCY: 67.653 cycles
L1D RQ	ACCESS:    6149505	FORWARD:          0	MERGED:    2808354	TO_CACHE:    3288647
L1D WQ	ACCESS:    1108674	FORWARD:      52504	MERGED:          2	TO_CACHE:    1108672
L1D PQ	ACCESS:   15900482	FORWARD:          0	MERGED:    3794990	TO_CACHE:   12105492

L1D UNIQUE REGIONS ACCESSED: 0
L1D REGIONS CONFLICTS: 0
L1D Cross Page Prefetch Requests: 0
L1D Same Page Prefetch Requests: 30674977
L1D ROI Sum of L1D PQ occupancy: 168214003
L1D PREFETCHES PUSHED FROM L2C: 0
L1I TOTAL     ACCESS:    4829917  HIT:    4829917  MISS:          0  HIT %:        100  MISS %:          0   MPKI: 0
L1I LOAD      ACCESS:    4829917  HIT:    4829917  MISS:          0  HIT %:        100  MISS %:          0   MPKI: 0
L1I PREFETCH  REQUESTED:          0  ISSUED:          0  USEFUL:          0  USELESS:          0
L1I USEFUL LOAD PREFETCHES:          0 PREFETCH ISSUED TO LOWER LEVEL:          0  ACCURACY: -nan
L1I TIMELY PREFETCHES:          0 LATE PREFETCHES: 0 DROPPED PREFETCHES: 0
L1I PREFETCHES SAME FILL-ORIGIN LEVEL: 0 DIFFERENT FILL-ORIGIN LEVEL: 0
L1I AVERAGE MISS LATENCY: -nan cycles
L1I RQ	ACCESS:    7353548	FORWARD:          0	MERGED:    2523631	TO_CACHE:    4829917

BTB TOTAL     ACCESS:    3283969  HIT:    3283961  MISS:          8  HIT %:    99.9998  MISS %: 0.000243608   MPKI: 0.00032
BTB BRANCH_DIRECT_JUMP	ACCESS:     568311  HIT:     568309  MISS:          2
BTB BRANCH_INDIRECT	ACCESS:          0  HIT:          0  MISS:          0
BTB BRANCH_CONDITIONAL	ACCESS:    1606988  HIT:    1606984  MISS:          4
BTB BRANCH_DIRECT_CALL	ACCESS:     554335  HIT:     554334  MISS:          1
BTB BRANCH_INDIRECT_CALL	ACCESS:          0  HIT:          0  MISS:          0
BTB BRANCH_RETURN	ACCESS:     554335  HIT:     554334  MISS:          1
BTB BRANCH_OTHER ACCESS:          0  HIT:          0  MISS:          0

L2C TOTAL     ACCESS:    6611720  HIT:    1951570  MISS:    4660150  HIT %:    29.5168  MISS %:    70.4832   MPKI: 186.406
L2C LOAD      ACCESS:    1223811  HIT:     302375  MISS:     921436  HIT %:    24.7077  MISS %:    75.2923   MPKI: 36.8574
L2C DATA LOAD MPKI: 36.8574
L2C INSTRUCTION LOAD MPKI: 0
L2C RFO       ACCESS:      69360  HIT:        768  MISS:      68592  HIT %:    1.10727  MISS %:    98.8927   MPKI: 2.74368
L2C PREFETCH  ACCESS:    4125009  HIT:    1015036  MISS:    3109973  HIT %:    24.6069  MISS %:    75.3931   MPKI: 124.399
AGUS PREFETCH L1 MISS: 0
L2C DATA PREFETCH MPKI: 124.399
L2C INSTRUCTION PREFETCH MPKI: 0
L2C WRITEBACK ACCESS:     554350  HIT:     554346  MISS:          4  HIT %:    99.9993  MISS %: 0.000721566   MPKI: 0.00016
L2C LOAD TRANSLATION ACCESS:     638788  HIT:      79045  MISS:     559743  HIT %:    12.3742  MISS %:    87.6258   MPKI: 22.3897
L2C TRANSLATION FROM L1D PREFETCHER ACCESS:        402  HIT:          0  MISS:        402  HIT %:          0  MISS %:        100   MPKI: 0.01608
L2C PREFETCH  REQUESTED:          0  ISSUED:          0  USEFUL:       4047  USELESS:    3106094
L2C USEFUL LOAD PREFETCHES:       4047 PREFETCH ISSUED TO LOWER LEVEL:    3109976  ACCURACY: 0.13013
L2C TIMELY PREFETCHES:       4047 LATE PREFETCHES: 0 DROPPED PREFETCHES: 0
L2C PREFETCHES SAME FILL-ORIGIN LEVEL: 0 DIFFERENT FILL-ORIGIN LEVEL: 0
L2C AVERAGE MISS LATENCY: 64.311 cycles
L2C RQ	ACCESS:    1932362	FORWARD:          0	MERGED:          0	TO_CACHE:    1932362
L2C WQ	ACCESS:     554350	FORWARD:          0	MERGED:          0	TO_CACHE:     554350
L2C PQ	ACCESS:    4125010	FORWARD:          0	MERGED:          0	TO_CACHE:    4125010

L2C Instructions Evicting Data 0
L2C Translations Evicting Data 482820
L2C Data Evicting Data 3616882
L2C Instructions Evicting Instructions 0
L2C Translations Evicting Instructions 0
L2C Data Evicting Instructions 0
L2C Instructions Evicting Translations 0
L2C Translations Evicting Translations 77325
L2C Data Evicting Translations 483119
L2C Dense regions hint from L2: 0
PSCL5 TOTAL     ACCESS:     562167  HIT:     562167  MISS:          0  HIT %:        100  MISS %:          0   MPKI: 0
PSCL5 LOAD TRANSLATION ACCESS:     561966  HIT:     561966  MISS:          0  HIT %:        100  MISS %:          0   MPKI: 0
PSCL5 TRANSLATION FROM L1D PREFETCHER ACCESS:        201  HIT:        201  MISS:          0  HIT %:        100  MISS %:          0   MPKI: 0
PSCL5 PREFETCH  REQUESTED:          0  ISSUED:          0  USEFUL:          0  USELESS:          0
PSCL5 USEFUL LOAD PREFETCHES:          0 PREFETCH ISSUED TO LOWER LEVEL:          0  ACCURACY: -nan
PSCL5 TIMELY PREFETCHES:          0 LATE PREFETCHES: 0 DROPPED PREFETCHES: 0
PSCL5 PREFETCHES SAME FILL-ORIGIN LEVEL: 0 DIFFERENT FILL-ORIGIN LEVEL: 0

PSCL4 TOTAL     ACCESS:     562167  HIT:     562167  MISS:          0  HIT %:        100  MISS %:          0   MPKI: 0
PSCL4 LOAD TRANSLATION ACCESS:     561966  HIT:     561966  MISS:          0  HIT %:        100  MISS %:          0   MPKI: 0
PSCL4 TRANSLATION FROM L1D PREFETCHER ACCESS:        201  HIT:        201  MISS:          0  HIT %:        100  MISS %:          0   MPKI: 0
PSCL4 PREFETCH  REQUESTED:          0  ISSUED:          0  USEFUL:          0  USELESS:          0
PSCL4 USEFUL LOAD PREFETCHES:          0 PREFETCH ISSUED TO LOWER LEVEL:          0  ACCURACY: -nan
PSCL4 TIMELY PREFETCHES:          0 LATE PREFETCHES: 0 DROPPED PREFETCHES: 0
PSCL4 PREFETCHES SAME FILL-ORIGIN LEVEL: 0 DIFFERENT FILL-ORIGIN LEVEL: 0

PSCL3 TOTAL     ACCESS:     562167  HIT:     562167  MISS:          0  HIT %:        100  MISS %:          0   MPKI: 0
PSCL3 LOAD TRANSLATION ACCESS:     561966  HIT:     561966  MISS:          0  HIT %:        100  MISS %:          0   MPKI: 0
PSCL3 TRANSLATION FROM L1D PREFETCHER ACCESS:        201  HIT:        201  MISS:          0  HIT %:        100  MISS %:          0   MPKI: 0
PSCL3 PREFETCH  REQUESTED:          0  ISSUED:          0  USEFUL:          0  USELESS:          0
PSCL3 USEFUL LOAD PREFETCHES:          0 PREFETCH ISSUED TO LOWER LEVEL:          0  ACCURACY: -nan
PSCL3 TIMELY PREFETCHES:          0 LATE PREFETCHES: 0 DROPPED PREFETCHES: 0
PSCL3 PREFETCHES SAME FILL-ORIGIN LEVEL: 0 DIFFERENT FILL-ORIGIN LEVEL: 0

PSCL2 TOTAL     ACCESS:     562166  HIT:     485142  MISS:      77024  HIT %:    86.2987  MISS %:    13.7013   MPKI: 3.08096
PSCL2 LOAD TRANSLATION ACCESS:     562166  HIT:     485142  MISS:      77024  HIT %:    86.2987  MISS %:    13.7013   MPKI: 3.08096
PSCL2 PREFETCH  REQUESTED:          0  ISSUED:          0  USEFUL:          0  USELESS:          0
PSCL2 USEFUL LOAD PREFETCHES:          0 PREFETCH ISSUED TO LOWER LEVEL:          0  ACCURACY: -nan
PSCL2 TIMELY PREFETCHES:          0 LATE PREFETCHES: 0 DROPPED PREFETCHES: 0
PSCL2 PREFETCHES SAME FILL-ORIGIN LEVEL: 0 DIFFERENT FILL-ORIGIN LEVEL: 0

LLC TOTAL     ACCESS:    5214711  HIT:    4462902  MISS:     751809  HIT %:    85.5829  MISS %:    14.4171   MPKI: 30.0724
LLC LOAD      ACCESS:     921436  HIT:     884700  MISS:      36736  HIT %:    96.0132  MISS %:    3.98682   MPKI: 1.46944
LLC RFO       ACCESS:      68592  HIT:      67693  MISS:        899  HIT %:    98.6894  MISS %:    1.31065   MPKI: 0.03596
LLC PREFETCH  ACCESS:    3109973  HIT:    2409211  MISS:     700762  HIT %:    77.4673  MISS %:    22.5327   MPKI: 28.0305
AGUS PREFETCH L1 MISS: 0
LLC WRITEBACK ACCESS:     554565  HIT:     554565  MISS:          0  HIT %:        100  MISS %:          0   MPKI: 0
LLC LOAD TRANSLATION ACCESS:     559743  HIT:     546333  MISS:      13410  HIT %:    97.6043  MISS %:    2.39574   MPKI: 0.5364
LLC TRANSLATION FROM L1D PREFETCHER ACCESS:        402  HIT:        400  MISS:          2  HIT %:    99.5025  MISS %:   0.497512   MPKI: 8e-05
LLC PREFETCH  REQUESTED:          0  ISSUED:          0  USEFUL:     606556  USELESS:      92794
LLC USEFUL LOAD PREFETCHES:     606556 PREFETCH ISSUED TO LOWER LEVEL:     700765  ACCURACY: 86.5563
LLC TIMELY PREFETCHES:     606556 LATE PREFETCHES: 0 DROPPED PREFETCHES: 0
LLC PREFETCHES SAME FILL-ORIGIN LEVEL: 0 DIFFERENT FILL-ORIGIN LEVEL: 0
LLC AVERAGE MISS LATENCY: 208.902 cycles
LLC RQ	ACCESS:    1550173	FORWARD:          0	MERGED:          0	TO_CACHE:    1550173
LLC WQ	ACCESS:     554565	FORWARD:          0	MERGED:          0	TO_CACHE:     554565
LLC PQ	ACCESS:    3109976	FORWARD:          0	MERGED:          0	TO_CACHE:    3109976

LLC Dense regions hint to LLC: 0

RAW hits: 501029
Loads Generated: 6650536
Loads sent to L1D: 6149505
Stores Generated: 1108672
Stores sent to L1D: 1108674
Major fault: 0 Minor fault: 23115
Allocated PAGES: 23115
CPU 0 L1D nextline prefetcher final stats
Degree: 5

DRAM Statistics
 CHANNEL 0
 RQ ROW_BUFFER_HIT:       9805  ROW_BUFFER_MISS:     742004
 DBUS_CONGESTED:          9
 WQ ROW_BUFFER_HIT:     151541  ROW_BUFFER_MISS:     404859  FULL:          0

 AVG_CONGESTED_CYCLE: 5
 All warmup complete: 2
Channel 0 Bank busy for read cycles: 0
Channel 0 Bank busy for write cycles: 0
Channel 0
Rank 0
0banks busy for read cycles: 139680
0banks busy for write cycles: 20
1banks busy for read cycles: 11875645
1banks busy for write cycles: 139194
2banks busy for read cycles: 14926446
2banks busy for write cycles: 139991
3banks busy for read cycles: 10289821
3banks busy for write cycles: 140948
4banks busy for read cycles: 4428301
4banks busy for write cycles: 145552
5banks busy for read cycles: 1193601
5banks busy for write cycles: 154944
6banks busy for read cycles: 1670058
6banks busy for write cycles: 184935
7banks busy for read cycles: 694076
7banks busy for write cycles: 919032
8banks busy for read cycles: 199699
8banks busy for write cycles: 15621362

CPU 0 Branch Prediction Accuracy: 99.9685% MPKI: 0.04912 Average ROB Occupancy at Mispredict: 157.157
Branch types
NOT_BRANCH: 21105674 84.4227%
BRANCH_DIRECT_JUMP: 568311 2.27324%
BRANCH_INDIRECT: 0 0%
BRANCH_CONDITIONAL: 2217340 8.86936%
BRANCH_DIRECT_CALL: 554335 2.21734%
BRANCH_INDIRECT_CALL: 0 0%
BRANCH_RETURN: 554335 2.21734%
BRANCH_OTHER: 0 0%

DRAM PAGES: 1048576
Allocated PAGES: 23115
