
*** ChampSim Multicore Out-of-Order Simulator ***

Warmup Instructions: 25000000
Simulation Instructions: 25000000
Number of CPUs: 1
LLC sets: 2048
LLC ways: 16
Off-chip DRAM Size: 4096 MB Channels: 1 Width: 64-bit Data Rate: 6400 MT/s
CPU 0 runs given/traces/trace3.champsimtrace.xz
.xz
CPU 0 Bimodal branch predictor
BTB has LRU replacement policy
ITLB has LRU replacement policy
DTLB has LRU replacement policy
STLB has LRU replacement policy
L1I has LRU replacement policy
CPU 0 L1D Complex-Stride prefetcher initialized
L1D has LRU replacement policy
L2C has LRU replacement policy
LLC has LRU replacement policy
Heartbeat CPU 0 instructions: 10000001 cycles: 3755621 heartbeat IPC: 2.66268 cumulative IPC: 2.66268 (Simulation time: 0 hr 0 min 36 sec) 
Heartbeat CPU 0 instructions: 20000000 cycles: 7482496 heartbeat IPC: 2.68321 cumulative IPC: 2.6729 (Simulation time: 0 hr 1 min 13 sec) 

Warmup complete CPU 0 instructions: 25000004 cycles: 9376195 (Simulation time: 0 hr 1 min 31 sec) 

Heartbeat CPU 0 instructions: 30000001 cycles: 38408870 heartbeat IPC: 0.323349 cumulative IPC: 0.17222 (Simulation time: 0 hr 2 min 6 sec) 
Heartbeat CPU 0 instructions: 40000001 cycles: 96997728 heartbeat IPC: 0.170681 cumulative IPC: 0.171191 (Simulation time: 0 hr 3 min 13 sec) 
Heartbeat CPU 0 instructions: 50000000 cycles: 158904768 heartbeat IPC: 0.161533 cumulative IPC: 0.167192 (Simulation time: 0 hr 4 min 22 sec) 
Finished CPU 0 instructions: 25000000 cycles: 149528575 cumulative IPC: 0.167192 (Simulation time: 0 hr 4 min 22 sec) 

ChampSim completed all CPUs

Region of Interest Statistics

CPU 0 cumulative IPC: 0.167192 instructions: 25000000 cycles: 149528575
ITLB TOTAL     ACCESS:    4045971  HIT:    4045971  MISS:          0  HIT %:        100  MISS %:          0   MPKI: 0
ITLB LOAD TRANSLATION ACCESS:    4045971  HIT:    4045971  MISS:          0  HIT %:        100  MISS %:          0   MPKI: 0
ITLB PREFETCH  REQUESTED:          0  ISSUED:          0  USEFUL:          0  USELESS:          0
ITLB USEFUL LOAD PREFETCHES:          0 PREFETCH ISSUED TO LOWER LEVEL:          0  ACCURACY: -nan
ITLB TIMELY PREFETCHES:          0 LATE PREFETCHES: 0 DROPPED PREFETCHES: 0
ITLB PREFETCHES SAME FILL-ORIGIN LEVEL: 0 DIFFERENT FILL-ORIGIN LEVEL: 0
ITLB AVERAGE MISS LATENCY: -nan cycles
ITLB RQ	ACCESS:    4097165	FORWARD:          0	MERGED:      51195	TO_CACHE:    4045970

DTLB TOTAL     ACCESS:    5226714  HIT:    3022569  MISS:    2204145  HIT %:    57.8292  MISS %:    42.1708   MPKI: 88.1658
DTLB LOAD TRANSLATION ACCESS:    5226714  HIT:    3022569  MISS:    2204145  HIT %:    57.8292  MISS %:    42.1708   MPKI: 88.1658
DTLB PREFETCH  REQUESTED:          0  ISSUED:          0  USEFUL:          0  USELESS:          0
DTLB USEFUL LOAD PREFETCHES:          0 PREFETCH ISSUED TO LOWER LEVEL:          0  ACCURACY: -nan
DTLB TIMELY PREFETCHES:          0 LATE PREFETCHES: 0 DROPPED PREFETCHES: 0
DTLB PREFETCHES SAME FILL-ORIGIN LEVEL: 0 DIFFERENT FILL-ORIGIN LEVEL: 0
DTLB AVERAGE MISS LATENCY: 11.2045 cycles
DTLB RQ	ACCESS:    5754224	FORWARD:          0	MERGED:     493015	TO_CACHE:    5261209

STLB TOTAL     ACCESS:    3240221  HIT:    3211186  MISS:      29035  HIT %:    99.1039  MISS %:   0.896081   MPKI: 1.1614
STLB LOAD TRANSLATION ACCESS:    2204145  HIT:    2175110  MISS:      29035  HIT %:    98.6827  MISS %:    1.31729   MPKI: 1.1614
STLB TRANSLATION FROM L1D PREFETCHER ACCESS:    1036076  HIT:    1036076  MISS:          0  HIT %:        100  MISS %:          0   MPKI: 0
STLB PREFETCH  REQUESTED:          0  ISSUED:          0  USEFUL:          0  USELESS:          0
STLB USEFUL LOAD PREFETCHES:          0 PREFETCH ISSUED TO LOWER LEVEL:          0  ACCURACY: -nan
STLB TIMELY PREFETCHES:          0 LATE PREFETCHES: 0 DROPPED PREFETCHES: 0
STLB PREFETCHES SAME FILL-ORIGIN LEVEL: 0 DIFFERENT FILL-ORIGIN LEVEL: 0
STLB AVERAGE MISS LATENCY: 136.126 cycles
STLB RQ	ACCESS:    7295073	FORWARD:          0	MERGED:    4054852	TO_CACHE:    3240221

STLB Hit, L1D data hit: 0
STLB Hit, L2C data hit: 0
STLB Hit, LLC data hit: 0
STLB Hit, LLC data miss: 0
STLB STLB hints to L2: 0
L1D TOTAL     ACCESS:    9010206  HIT:    4843835  MISS:    4166371  HIT %:    53.7594  MISS %:    46.2406   MPKI: 166.655
L1D LOAD      ACCESS:    5253756  HIT:    2330493  MISS:    2923263  HIT %:    44.3586  MISS %:    55.6414   MPKI: 116.931
L1D RFO       ACCESS:     423797  HIT:     415940  MISS:       7857  HIT %:     98.146  MISS %:    1.85395   MPKI: 0.31428
L1D PREFETCH  ACCESS:    3332653  HIT:    2097402  MISS:    1235251  HIT %:    62.9349  MISS %:    37.0651   MPKI: 49.41
AGUS PREFETCH L1 MISS: 0
L1D PREFETCH  REQUESTED:   11440591  ISSUED:   11440440  USEFUL:     956194  USELESS:     279091
L1D USEFUL LOAD PREFETCHES:     956194 PREFETCH ISSUED TO LOWER LEVEL:    1415772  ACCURACY: 67.5387
L1D TIMELY PREFETCHES:     956194 LATE PREFETCHES: 180507 DROPPED PREFETCHES: 0
L1D PREFETCHES SAME FILL-ORIGIN LEVEL: 1415772 DIFFERENT FILL-ORIGIN LEVEL: 0
L1D AVERAGE MISS LATENCY: 125.408 cycles
L1D RQ	ACCESS:    8951686	FORWARD:          0	MERGED:    3575629	TO_CACHE:    5311113
L1D WQ	ACCESS:     459661	FORWARD:      65189	MERGED:      16550	TO_CACHE:     443111
L1D PQ	ACCESS:    6349512	FORWARD:          0	MERGED:    1258339	TO_CACHE:    5090928

L1D UNIQUE REGIONS ACCESSED: 0
L1D REGIONS CONFLICTS: 0
L1D Cross Page Prefetch Requests: 0
L1D Same Page Prefetch Requests: 12436376
L1D ROI Sum of L1D PQ occupancy: 70398072
L1D PREFETCHES PUSHED FROM L2C: 0
L1I TOTAL     ACCESS:    4097166  HIT:    4097166  MISS:          0  HIT %:        100  MISS %:          0   MPKI: 0
L1I LOAD      ACCESS:    4097166  HIT:    4097166  MISS:          0  HIT %:        100  MISS %:          0   MPKI: 0
L1I PREFETCH  REQUESTED:          0  ISSUED:          0  USEFUL:          0  USELESS:          0
L1I USEFUL LOAD PREFETCHES:          0 PREFETCH ISSUED TO LOWER LEVEL:          0  ACCURACY: -nan
L1I TIMELY PREFETCHES:          0 LATE PREFETCHES: 0 DROPPED PREFETCHES: 0
L1I PREFETCHES SAME FILL-ORIGIN LEVEL: 0 DIFFERENT FILL-ORIGIN LEVEL: 0
L1I AVERAGE MISS LATENCY: -nan cycles
L1I RQ	ACCESS:    5499384	FORWARD:          0	MERGED:    1402219	TO_CACHE:    4097165

BTB TOTAL     ACCESS:    7381233  HIT:    7359090  MISS:      22143  HIT %:       99.7  MISS %:   0.299991   MPKI: 0.88572
BTB BRANCH_DIRECT_JUMP	ACCESS:     954613  HIT:     954578  MISS:         35
BTB BRANCH_INDIRECT	ACCESS:          0  HIT:          0  MISS:          0
BTB BRANCH_CONDITIONAL	ACCESS:    6254608  HIT:    6254529  MISS:         79
BTB BRANCH_DIRECT_CALL	ACCESS:      79755  HIT:      79739  MISS:         16
BTB BRANCH_INDIRECT_CALL	ACCESS:       6250  HIT:       6242  MISS:          8
BTB BRANCH_RETURN	ACCESS:      86007  HIT:      64002  MISS:      22005
BTB BRANCH_OTHER ACCESS:          0  HIT:          0  MISS:          0

L2C TOTAL     ACCESS:    4275471  HIT:     501535  MISS:    3773936  HIT %:    11.7305  MISS %:    88.2695   MPKI: 150.957
L2C LOAD      ACCESS:    2742754  HIT:     383052  MISS:    2359702  HIT %:     13.966  MISS %:     86.034   MPKI: 94.3881
L2C DATA LOAD MPKI: 94.3881
L2C INSTRUCTION LOAD MPKI: 0
L2C RFO       ACCESS:       7856  HIT:        582  MISS:       7274  HIT %:    7.40835  MISS %:    92.5916   MPKI: 0.29096
L2C PREFETCH  ACCESS:    1415758  HIT:      17954  MISS:    1397804  HIT %:    1.26815  MISS %:    98.7318   MPKI: 55.9122
AGUS PREFETCH L1 MISS: 0
L2C DATA PREFETCH MPKI: 55.9122
L2C INSTRUCTION PREFETCH MPKI: 0
L2C WRITEBACK ACCESS:      79903  HIT:      79902  MISS:          1  HIT %:    99.9987  MISS %: 0.00125152   MPKI: 4e-05
L2C LOAD TRANSLATION ACCESS:      29200  HIT:      20045  MISS:       9155  HIT %:    68.6473  MISS %:    31.3527   MPKI: 0.3662
L2C PREFETCH  REQUESTED:          0  ISSUED:          0  USEFUL:      10998  USELESS:    1387003
L2C USEFUL LOAD PREFETCHES:      10998 PREFETCH ISSUED TO LOWER LEVEL:    1397812  ACCURACY: 0.786801
L2C TIMELY PREFETCHES:      10998 LATE PREFETCHES: 0 DROPPED PREFETCHES: 0
L2C PREFETCHES SAME FILL-ORIGIN LEVEL: 0 DIFFERENT FILL-ORIGIN LEVEL: 0
L2C AVERAGE MISS LATENCY: 121.757 cycles
L2C RQ	ACCESS:    2779814	FORWARD:          0	MERGED:          0	TO_CACHE:    2779812
L2C WQ	ACCESS:      79903	FORWARD:          3	MERGED:          0	TO_CACHE:      79903
L2C PQ	ACCESS:    1415772	FORWARD:          0	MERGED:          0	TO_CACHE:    1415771

L2C Instructions Evicting Data 0
L2C Translations Evicting Data 9125
L2C Data Evicting Data 3755675
L2C Instructions Evicting Instructions 0
L2C Translations Evicting Instructions 0
L2C Data Evicting Instructions 0
L2C Instructions Evicting Translations 0
L2C Translations Evicting Translations 30
L2C Data Evicting Translations 9105
L2C Dense regions hint from L2: 0
PSCL5 TOTAL     ACCESS:      29035  HIT:      29035  MISS:          0  HIT %:        100  MISS %:          0   MPKI: 0
PSCL5 LOAD TRANSLATION ACCESS:      29035  HIT:      29035  MISS:          0  HIT %:        100  MISS %:          0   MPKI: 0
PSCL5 PREFETCH  REQUESTED:          0  ISSUED:          0  USEFUL:          0  USELESS:          0
PSCL5 USEFUL LOAD PREFETCHES:          0 PREFETCH ISSUED TO LOWER LEVEL:          0  ACCURACY: -nan
PSCL5 TIMELY PREFETCHES:          0 LATE PREFETCHES: 0 DROPPED PREFETCHES: 0
PSCL5 PREFETCHES SAME FILL-ORIGIN LEVEL: 0 DIFFERENT FILL-ORIGIN LEVEL: 0

PSCL4 TOTAL     ACCESS:      29035  HIT:      29035  MISS:          0  HIT %:        100  MISS %:          0   MPKI: 0
PSCL4 LOAD TRANSLATION ACCESS:      29035  HIT:      29035  MISS:          0  HIT %:        100  MISS %:          0   MPKI: 0
PSCL4 PREFETCH  REQUESTED:          0  ISSUED:          0  USEFUL:          0  USELESS:          0
PSCL4 USEFUL LOAD PREFETCHES:          0 PREFETCH ISSUED TO LOWER LEVEL:          0  ACCURACY: -nan
PSCL4 TIMELY PREFETCHES:          0 LATE PREFETCHES: 0 DROPPED PREFETCHES: 0
PSCL4 PREFETCHES SAME FILL-ORIGIN LEVEL: 0 DIFFERENT FILL-ORIGIN LEVEL: 0

PSCL3 TOTAL     ACCESS:      29035  HIT:      29035  MISS:          0  HIT %:        100  MISS %:          0   MPKI: 0
PSCL3 LOAD TRANSLATION ACCESS:      29035  HIT:      29035  MISS:          0  HIT %:        100  MISS %:          0   MPKI: 0
PSCL3 PREFETCH  REQUESTED:          0  ISSUED:          0  USEFUL:          0  USELESS:          0
PSCL3 USEFUL LOAD PREFETCHES:          0 PREFETCH ISSUED TO LOWER LEVEL:          0  ACCURACY: -nan
PSCL3 TIMELY PREFETCHES:          0 LATE PREFETCHES: 0 DROPPED PREFETCHES: 0
PSCL3 PREFETCHES SAME FILL-ORIGIN LEVEL: 0 DIFFERENT FILL-ORIGIN LEVEL: 0

PSCL2 TOTAL     ACCESS:      29035  HIT:      28734  MISS:        301  HIT %:    98.9633  MISS %:    1.03668   MPKI: 0.01204
PSCL2 LOAD TRANSLATION ACCESS:      29035  HIT:      28734  MISS:        301  HIT %:    98.9633  MISS %:    1.03668   MPKI: 0.01204
PSCL2 PREFETCH  REQUESTED:          0  ISSUED:          0  USEFUL:          0  USELESS:          0
PSCL2 USEFUL LOAD PREFETCHES:          0 PREFETCH ISSUED TO LOWER LEVEL:          0  ACCURACY: -nan
PSCL2 TIMELY PREFETCHES:          0 LATE PREFETCHES: 0 DROPPED PREFETCHES: 0
PSCL2 PREFETCHES SAME FILL-ORIGIN LEVEL: 0 DIFFERENT FILL-ORIGIN LEVEL: 0

LLC TOTAL     ACCESS:    3850126  HIT:    1643842  MISS:    2206284  HIT %:    42.6958  MISS %:    57.3042   MPKI: 88.2514
LLC LOAD      ACCESS:    2359702  HIT:    1492208  MISS:     867494  HIT %:    63.2371  MISS %:    36.7629   MPKI: 34.6998
LLC RFO       ACCESS:       7274  HIT:       6064  MISS:       1210  HIT %:    83.3654  MISS %:    16.6346   MPKI: 0.0484
LLC PREFETCH  ACCESS:    1397805  HIT:      65574  MISS:    1332231  HIT %:    4.69121  MISS %:    95.3088   MPKI: 53.2892
AGUS PREFETCH L1 MISS: 0
LLC WRITEBACK ACCESS:      76190  HIT:      76108  MISS:         82  HIT %:    99.8924  MISS %:   0.107626   MPKI: 0.00328
LLC LOAD TRANSLATION ACCESS:       9155  HIT:       3888  MISS:       5267  HIT %:    42.4686  MISS %:    57.5314   MPKI: 0.21068
LLC PREFETCH  REQUESTED:          0  ISSUED:          0  USEFUL:      14452  USELESS:    1318602
LLC USEFUL LOAD PREFETCHES:      14452 PREFETCH ISSUED TO LOWER LEVEL:    1332238  ACCURACY: 1.08479
LLC TIMELY PREFETCHES:      14452 LATE PREFETCHES: 0 DROPPED PREFETCHES: 0
LLC PREFETCHES SAME FILL-ORIGIN LEVEL: 0 DIFFERENT FILL-ORIGIN LEVEL: 0
LLC AVERAGE MISS LATENCY: 156.359 cycles
LLC RQ	ACCESS:    2376132	FORWARD:          0	MERGED:          0	TO_CACHE:    2376132
LLC WQ	ACCESS:      76190	FORWARD:          0	MERGED:          0	TO_CACHE:      76190
LLC PQ	ACCESS:    1397812	FORWARD:          0	MERGED:          0	TO_CACHE:    1397812

LLC Dense regions hint to LLC: 0

RAW hits: 62641
Loads Generated: 9014327
Loads sent to L1D: 8951686
Stores Generated: 459660
Stores sent to L1D: 459661
Major fault: 0 Minor fault: 44120
Allocated PAGES: 44120
CPU 0 L1D complex stride prefetcher final stats
Degree: 5

DRAM Statistics
 CHANNEL 0
 RQ ROW_BUFFER_HIT:     873932  ROW_BUFFER_MISS:    1332243
 DBUS_CONGESTED:        241
 WQ ROW_BUFFER_HIT:      11021  ROW_BUFFER_MISS:      29021  FULL:          0

 AVG_CONGESTED_CYCLE: 4
 All warmup complete: 2
Channel 0 Bank busy for read cycles: 0
Channel 0 Bank busy for write cycles: 0
Channel 0
Rank 0
0banks busy for read cycles: 48257956
0banks busy for write cycles: 14232
1banks busy for read cycles: 37368565
1banks busy for write cycles: 2789901
2banks busy for read cycles: 21594920
2banks busy for write cycles: 581575
3banks busy for read cycles: 14105176
3banks busy for write cycles: 225651
4banks busy for read cycles: 9881718
4banks busy for write cycles: 143625
5banks busy for read cycles: 6694673
5banks busy for write cycles: 115264
6banks busy for read cycles: 4051175
6banks busy for write cycles: 109612
7banks busy for read cycles: 2262489
7banks busy for write cycles: 142542
8banks busy for read cycles: 942821
8banks busy for write cycles: 246681

CPU 0 Branch Prediction Accuracy: 96.3142% MPKI: 11.2642 Average ROB Occupancy at Mispredict: 45.7668
Branch types
NOT_BRANCH: 17359361 69.4374%
BRANCH_DIRECT_JUMP: 954613 3.81845%
BRANCH_INDIRECT: 0 0%
BRANCH_CONDITIONAL: 6513665 26.0547%
BRANCH_DIRECT_CALL: 79755 0.31902%
BRANCH_INDIRECT_CALL: 6250 0.025%
BRANCH_RETURN: 86007 0.344028%
BRANCH_OTHER: 0 0%

DRAM PAGES: 1048576
Allocated PAGES: 44120
