
*** ChampSim Multicore Out-of-Order Simulator ***

Warmup Instructions: 25000000
Simulation Instructions: 25000000
Number of CPUs: 1
LLC sets: 2048
LLC ways: 16
Off-chip DRAM Size: 4096 MB Channels: 1 Width: 64-bit Data Rate: 6400 MT/s
CPU 0 runs given/traces/trace2.champsimtrace.xz
.xz
CPU 0 Bimodal branch predictor
BTB has LRU replacement policy
ITLB has LRU replacement policy
DTLB has LRU replacement policy
STLB has LRU replacement policy
L1I has LRU replacement policy
CPU 0 L1D Optimized prefetcher
L1D has LRU replacement policy
L2C has LRU replacement policy
LLC has LRU replacement policy
Heartbeat CPU 0 instructions: 10000002 cycles: 3798770 heartbeat IPC: 2.63243 cumulative IPC: 2.63243 (Simulation time: 0 hr 0 min 31 sec) 
Heartbeat CPU 0 instructions: 20000001 cycles: 7599889 heartbeat IPC: 2.6308 cumulative IPC: 2.63162 (Simulation time: 0 hr 1 min 1 sec) 

Warmup complete CPU 0 instructions: 25000001 cycles: 9499594 (Simulation time: 0 hr 1 min 16 sec) 

IP stride coverage after phase end: 0.775138 weight: 0.5999
CPLX coverage after phase end: 0.816932 weight: 0.618552
NL stride coverage after phase end: 0.84621 weight: 0.614285
Best prefetcher: 2
Heartbeat CPU 0 instructions: 30000001 cycles: 23227508 heartbeat IPC: 0.639893 cumulative IPC: 0.364221 (Simulation time: 0 hr 1 min 44 sec) 
Heartbeat CPU 0 instructions: 40000002 cycles: 50285721 heartbeat IPC: 0.369574 cumulative IPC: 0.367772 (Simulation time: 0 hr 2 min 40 sec) 
Heartbeat CPU 0 instructions: 50000000 cycles: 76854267 heartbeat IPC: 0.376385 cumulative IPC: 0.371169 (Simulation time: 0 hr 3 min 36 sec) 
Finished CPU 0 instructions: 25000000 cycles: 67354695 cumulative IPC: 0.371169 (Simulation time: 0 hr 3 min 36 sec) 

ChampSim completed all CPUs

Region of Interest Statistics

CPU 0 cumulative IPC: 0.371169 instructions: 25000000 cycles: 67354695
ITLB TOTAL     ACCESS:    4557862  HIT:    4557862  MISS:          0  HIT %:        100  MISS %:          0   MPKI: 0
ITLB LOAD TRANSLATION ACCESS:    4557862  HIT:    4557862  MISS:          0  HIT %:        100  MISS %:          0   MPKI: 0
ITLB PREFETCH  REQUESTED:          0  ISSUED:          0  USEFUL:          0  USELESS:          0
ITLB USEFUL LOAD PREFETCHES:          0 PREFETCH ISSUED TO LOWER LEVEL:          0  ACCURACY: -nan
ITLB TIMELY PREFETCHES:          0 LATE PREFETCHES: 0 DROPPED PREFETCHES: 0
ITLB PREFETCHES SAME FILL-ORIGIN LEVEL: 0 DIFFERENT FILL-ORIGIN LEVEL: 0
ITLB AVERAGE MISS LATENCY: -nan cycles
ITLB RQ	ACCESS:    4643275	FORWARD:          0	MERGED:      85413	TO_CACHE:    4557862

DTLB TOTAL     ACCESS:    3869363  HIT:    3835349  MISS:      34014  HIT %:    99.1209  MISS %:   0.879059   MPKI: 1.36056
DTLB LOAD TRANSLATION ACCESS:    3869363  HIT:    3835349  MISS:      34014  HIT %:    99.1209  MISS %:   0.879059   MPKI: 1.36056
DTLB PREFETCH  REQUESTED:          0  ISSUED:          0  USEFUL:          0  USELESS:          0
DTLB USEFUL LOAD PREFETCHES:          0 PREFETCH ISSUED TO LOWER LEVEL:          0  ACCURACY: -nan
DTLB TIMELY PREFETCHES:          0 LATE PREFETCHES: 0 DROPPED PREFETCHES: 0
DTLB PREFETCHES SAME FILL-ORIGIN LEVEL: 0 DIFFERENT FILL-ORIGIN LEVEL: 0
DTLB AVERAGE MISS LATENCY: 107.705 cycles
DTLB RQ	ACCESS:    4554056	FORWARD:          0	MERGED:     684563	TO_CACHE:    3869493

STLB TOTAL     ACCESS:    3048164  HIT:    3015503  MISS:      32661  HIT %:    98.9285  MISS %:     1.0715   MPKI: 1.30644
STLB LOAD TRANSLATION ACCESS:      34014  HIT:       1361  MISS:      32653  HIT %:    4.00129  MISS %:    95.9987   MPKI: 1.30612
STLB TRANSLATION FROM L1D PREFETCHER ACCESS:    3014150  HIT:    3014142  MISS:          8  HIT %:    99.9997  MISS %: 0.000265415   MPKI: 0.00032
STLB PREFETCH  REQUESTED:          0  ISSUED:          0  USEFUL:          8  USELESS:          0
STLB USEFUL LOAD PREFETCHES:          8 PREFETCH ISSUED TO LOWER LEVEL:          0  ACCURACY: inf
STLB TIMELY PREFETCHES:          8 LATE PREFETCHES: 0 DROPPED PREFETCHES: 0
STLB PREFETCHES SAME FILL-ORIGIN LEVEL: 0 DIFFERENT FILL-ORIGIN LEVEL: 0
STLB AVERAGE MISS LATENCY: 102.877 cycles
STLB RQ	ACCESS:   14570198	FORWARD:          0	MERGED:   11522034	TO_CACHE:    3048164

STLB Hit, L1D data hit: 0
STLB Hit, L2C data hit: 0
STLB Hit, LLC data hit: 0
STLB Hit, LLC data miss: 0
STLB STLB hints to L2: 0
L1D TOTAL     ACCESS:   11294999  HIT:    9463660  MISS:    1831339  HIT %:    83.7863  MISS %:    16.2137   MPKI: 73.2536
L1D LOAD      ACCESS:    4206433  HIT:    3927181  MISS:     279252  HIT %:    93.3613  MISS %:    6.63869   MPKI: 11.1701
L1D RFO       ACCESS:     333322  HIT:     333308  MISS:         14  HIT %:    99.9958  MISS %: 0.00420014   MPKI: 0.00056
L1D PREFETCH  ACCESS:    6755244  HIT:    5203171  MISS:    1552073  HIT %:    77.0242  MISS %:    22.9758   MPKI: 62.0829
AGUS PREFETCH L1 MISS: 0
L1D PREFETCH  REQUESTED:   34667601  ISSUED:   34638415  USEFUL:    1475453  USELESS:      76528
L1D USEFUL LOAD PREFETCHES:    1475453 PREFETCH ISSUED TO LOWER LEVEL:    1787905  ACCURACY: 82.5241
L1D TIMELY PREFETCHES:    1475453 LATE PREFETCHES: 235831 DROPPED PREFETCHES: 0
L1D PREFETCHES SAME FILL-ORIGIN LEVEL: 1787905 DIFFERENT FILL-ORIGIN LEVEL: 0
L1D AVERAGE MISS LATENCY: 120.518 cycles
L1D RQ	ACCESS:    8972962	FORWARD:          0	MERGED:    4750675	TO_CACHE:    4220730
L1D WQ	ACCESS:     370377	FORWARD:       1557	MERGED:      37051	TO_CACHE:     333326
L1D PQ	ACCESS:   20102231	FORWARD:          0	MERGED:    5566047	TO_CACHE:   14536184

L1D UNIQUE REGIONS ACCESSED: 0
L1D REGIONS CONFLICTS: 0
L1D Cross Page Prefetch Requests: 0
L1D Same Page Prefetch Requests: 20102231
L1D ROI Sum of L1D PQ occupancy: 204160826
L1D PREFETCHES PUSHED FROM L2C: 0
L1I TOTAL     ACCESS:    4643274  HIT:    4643274  MISS:          0  HIT %:        100  MISS %:          0   MPKI: 0
L1I LOAD      ACCESS:    4643274  HIT:    4643274  MISS:          0  HIT %:        100  MISS %:          0   MPKI: 0
L1I PREFETCH  REQUESTED:          0  ISSUED:          0  USEFUL:          0  USELESS:          0
L1I USEFUL LOAD PREFETCHES:          0 PREFETCH ISSUED TO LOWER LEVEL:          0  ACCURACY: -nan
L1I TIMELY PREFETCHES:          0 LATE PREFETCHES: 0 DROPPED PREFETCHES: 0
L1I PREFETCHES SAME FILL-ORIGIN LEVEL: 0 DIFFERENT FILL-ORIGIN LEVEL: 0
L1I AVERAGE MISS LATENCY: -nan cycles
L1I RQ	ACCESS:    6968695	FORWARD:          0	MERGED:    2325420	TO_CACHE:    4643275

BTB TOTAL     ACCESS:    5953193  HIT:    5953095  MISS:         98  HIT %:    99.9984  MISS %: 0.00164618   MPKI: 0.00392
BTB BRANCH_DIRECT_JUMP	ACCESS:      85874  HIT:      85848  MISS:         26
BTB BRANCH_INDIRECT	ACCESS:          0  HIT:          0  MISS:          0
BTB BRANCH_CONDITIONAL	ACCESS:    5783213  HIT:    5783164  MISS:         49
BTB BRANCH_DIRECT_CALL	ACCESS:      42053  HIT:      42043  MISS:         10
BTB BRANCH_INDIRECT_CALL	ACCESS:          0  HIT:          0  MISS:          0
BTB BRANCH_RETURN	ACCESS:      42053  HIT:      42040  MISS:         13
BTB BRANCH_OTHER ACCESS:          0  HIT:          0  MISS:          0

L2C TOTAL     ACCESS:    1867440  HIT:      66641  MISS:    1800799  HIT %:    3.56858  MISS %:    96.4314   MPKI: 72.032
L2C LOAD      ACCESS:      43421  HIT:       5734  MISS:      37687  HIT %:    13.2056  MISS %:    86.7944   MPKI: 1.50748
L2C DATA LOAD MPKI: 1.50748
L2C INSTRUCTION LOAD MPKI: 0
L2C RFO       ACCESS:         13  HIT:          0  MISS:         13  HIT %:          0  MISS %:        100   MPKI: 0.00052
L2C PREFETCH  ACCESS:    1787905  HIT:      32277  MISS:    1755628  HIT %:     1.8053  MISS %:    98.1947   MPKI: 70.2251
AGUS PREFETCH L1 MISS: 0
L2C DATA PREFETCH MPKI: 70.2251
L2C INSTRUCTION PREFETCH MPKI: 0
L2C WRITEBACK ACCESS:       2818  HIT:       2796  MISS:         22  HIT %:    99.2193  MISS %:   0.780696   MPKI: 0.00088
L2C LOAD TRANSLATION ACCESS:      33270  HIT:      25833  MISS:       7437  HIT %:    77.6465  MISS %:    22.3535   MPKI: 0.29748
L2C TRANSLATION FROM L1D PREFETCHER ACCESS:         13  HIT:          1  MISS:         12  HIT %:    7.69231  MISS %:    92.3077   MPKI: 0.00048
L2C PREFETCH  REQUESTED:          0  ISSUED:          0  USEFUL:       1695  USELESS:    1745981
L2C USEFUL LOAD PREFETCHES:       1695 PREFETCH ISSUED TO LOWER LEVEL:    1755628  ACCURACY: 0.0965466
L2C TIMELY PREFETCHES:       1695 LATE PREFETCHES: 0 DROPPED PREFETCHES: 0
L2C PREFETCHES SAME FILL-ORIGIN LEVEL: 0 DIFFERENT FILL-ORIGIN LEVEL: 0
L2C AVERAGE MISS LATENCY: 107.911 cycles
L2C RQ	ACCESS:      76716	FORWARD:          0	MERGED:          0	TO_CACHE:      76716
L2C WQ	ACCESS:       2818	FORWARD:          0	MERGED:          0	TO_CACHE:       2818
L2C PQ	ACCESS:    1787905	FORWARD:          0	MERGED:          0	TO_CACHE:    1787905

L2C Instructions Evicting Data 0
L2C Translations Evicting Data 7420
L2C Data Evicting Data 1785921
L2C Instructions Evicting Instructions 0
L2C Translations Evicting Instructions 0
L2C Data Evicting Instructions 0
L2C Instructions Evicting Translations 0
L2C Translations Evicting Translations 29
L2C Data Evicting Translations 7407
L2C Dense regions hint from L2: 0
PSCL5 TOTAL     ACCESS:      32661  HIT:      32661  MISS:          0  HIT %:        100  MISS %:          0   MPKI: 0
PSCL5 LOAD TRANSLATION ACCESS:      32653  HIT:      32653  MISS:          0  HIT %:        100  MISS %:          0   MPKI: 0
PSCL5 TRANSLATION FROM L1D PREFETCHER ACCESS:          8  HIT:          8  MISS:          0  HIT %:        100  MISS %:          0   MPKI: 0
PSCL5 PREFETCH  REQUESTED:          0  ISSUED:          0  USEFUL:          0  USELESS:          0
PSCL5 USEFUL LOAD PREFETCHES:          0 PREFETCH ISSUED TO LOWER LEVEL:          0  ACCURACY: -nan
PSCL5 TIMELY PREFETCHES:          0 LATE PREFETCHES: 0 DROPPED PREFETCHES: 0
PSCL5 PREFETCHES SAME FILL-ORIGIN LEVEL: 0 DIFFERENT FILL-ORIGIN LEVEL: 0

PSCL4 TOTAL     ACCESS:      32661  HIT:      32661  MISS:          0  HIT %:        100  MISS %:          0   MPKI: 0
PSCL4 LOAD TRANSLATION ACCESS:      32653  HIT:      32653  MISS:          0  HIT %:        100  MISS %:          0   MPKI: 0
PSCL4 TRANSLATION FROM L1D PREFETCHER ACCESS:          8  HIT:          8  MISS:          0  HIT %:        100  MISS %:          0   MPKI: 0
PSCL4 PREFETCH  REQUESTED:          0  ISSUED:          0  USEFUL:          0  USELESS:          0
PSCL4 USEFUL LOAD PREFETCHES:          0 PREFETCH ISSUED TO LOWER LEVEL:          0  ACCURACY: -nan
PSCL4 TIMELY PREFETCHES:          0 LATE PREFETCHES: 0 DROPPED PREFETCHES: 0
PSCL4 PREFETCHES SAME FILL-ORIGIN LEVEL: 0 DIFFERENT FILL-ORIGIN LEVEL: 0

PSCL3 TOTAL     ACCESS:      32487  HIT:      32484  MISS:          3  HIT %:    99.9908  MISS %: 0.00923446   MPKI: 0.00012
PSCL3 LOAD TRANSLATION ACCESS:      32480  HIT:      32477  MISS:          3  HIT %:    99.9908  MISS %: 0.00923645   MPKI: 0.00012
PSCL3 TRANSLATION FROM L1D PREFETCHER ACCESS:          7  HIT:          7  MISS:          0  HIT %:        100  MISS %:          0   MPKI: 0
PSCL3 PREFETCH  REQUESTED:          0  ISSUED:          0  USEFUL:          0  USELESS:          0
PSCL3 USEFUL LOAD PREFETCHES:          0 PREFETCH ISSUED TO LOWER LEVEL:          0  ACCURACY: -nan
PSCL3 TIMELY PREFETCHES:          0 LATE PREFETCHES: 0 DROPPED PREFETCHES: 0
PSCL3 PREFETCHES SAME FILL-ORIGIN LEVEL: 0 DIFFERENT FILL-ORIGIN LEVEL: 0

PSCL2 TOTAL     ACCESS:      32661  HIT:      31944  MISS:        717  HIT %:    97.8047  MISS %:    2.19528   MPKI: 0.02868
PSCL2 LOAD TRANSLATION ACCESS:      32657  HIT:      31940  MISS:        717  HIT %:    97.8045  MISS %:    2.19555   MPKI: 0.02868
PSCL2 TRANSLATION FROM L1D PREFETCHER ACCESS:          4  HIT:          4  MISS:          0  HIT %:        100  MISS %:          0   MPKI: 0
PSCL2 PREFETCH  REQUESTED:          0  ISSUED:          0  USEFUL:          0  USELESS:          0
PSCL2 USEFUL LOAD PREFETCHES:          0 PREFETCH ISSUED TO LOWER LEVEL:          0  ACCURACY: -nan
PSCL2 TIMELY PREFETCHES:          0 LATE PREFETCHES: 0 DROPPED PREFETCHES: 0
PSCL2 PREFETCHES SAME FILL-ORIGIN LEVEL: 0 DIFFERENT FILL-ORIGIN LEVEL: 0

LLC TOTAL     ACCESS:    1803552  HIT:       5569  MISS:    1797983  HIT %:    0.30878  MISS %:    99.6912   MPKI: 71.9193
LLC LOAD      ACCESS:      37687  HIT:        534  MISS:      37153  HIT %:    1.41693  MISS %:    98.5831   MPKI: 1.48612
LLC RFO       ACCESS:         13  HIT:          0  MISS:         13  HIT %:          0  MISS %:        100   MPKI: 0.00052
LLC PREFETCH  ACCESS:    1755628  HIT:       1946  MISS:    1753682  HIT %:   0.110844  MISS %:    99.8892   MPKI: 70.1473
AGUS PREFETCH L1 MISS: 0
LLC WRITEBACK ACCESS:       2775  HIT:       2765  MISS:         10  HIT %:    99.6396  MISS %:    0.36036   MPKI: 0.0004
LLC LOAD TRANSLATION ACCESS:       7437  HIT:        324  MISS:       7113  HIT %:     4.3566  MISS %:    95.6434   MPKI: 0.28452
LLC TRANSLATION FROM L1D PREFETCHER ACCESS:         12  HIT:          0  MISS:         12  HIT %:          0  MISS %:        100   MPKI: 0.00048
LLC PREFETCH  REQUESTED:          0  ISSUED:          0  USEFUL:         37  USELESS:    1721821
LLC USEFUL LOAD PREFETCHES:         37 PREFETCH ISSUED TO LOWER LEVEL:    1753682  ACCURACY: 0.00210985
LLC TIMELY PREFETCHES:         37 LATE PREFETCHES: 0 DROPPED PREFETCHES: 0
LLC PREFETCHES SAME FILL-ORIGIN LEVEL: 0 DIFFERENT FILL-ORIGIN LEVEL: 0
LLC AVERAGE MISS LATENCY: 77.9341 cycles
LLC RQ	ACCESS:      45148	FORWARD:          0	MERGED:          0	TO_CACHE:      45148
LLC WQ	ACCESS:       2775	FORWARD:          0	MERGED:          0	TO_CACHE:       2775
LLC PQ	ACCESS:    1755628	FORWARD:          0	MERGED:          0	TO_CACHE:    1755628

LLC Dense regions hint to LLC: 0

RAW hits: 3999
Loads Generated: 8976961
Loads sent to L1D: 8972962
Stores Generated: 370377
Stores sent to L1D: 370377
Major fault: 0 Minor fault: 48857
Allocated PAGES: 48857
CPU 0 L1D optimized prefetcher final stats
Degree: 5
Total loads10820499

DRAM Statistics
 CHANNEL 0
 RQ ROW_BUFFER_HIT:    1672177  ROW_BUFFER_MISS:     125795
 DBUS_CONGESTED:        353
 WQ ROW_BUFFER_HIT:        417  ROW_BUFFER_MISS:       2355  FULL:          0

 AVG_CONGESTED_CYCLE: 4
 All warmup complete: 2
Channel 0 Bank busy for read cycles: 0
Channel 0 Bank busy for write cycles: 0
Channel 0
Rank 0
0banks busy for read cycles: 16493807
0banks busy for write cycles: 1273
1banks busy for read cycles: 14026272
1banks busy for write cycles: 309409
2banks busy for read cycles: 27931170
2banks busy for write cycles: 147788
3banks busy for read cycles: 5000461
3banks busy for write cycles: 55875
4banks busy for read cycles: 927504
4banks busy for write cycles: 30043
5banks busy for read cycles: 700768
5banks busy for write cycles: 15117
6banks busy for read cycles: 1563247
6banks busy for write cycles: 8302
7banks busy for read cycles: 119996
7banks busy for write cycles: 2690
8banks busy for read cycles: 19755
8banks busy for write cycles: 1219

CPU 0 Branch Prediction Accuracy: 99.1323% MPKI: 3.09396 Average ROB Occupancy at Mispredict: 107.749
Branch types
NOT_BRANCH: 16085561 64.3422%
BRANCH_DIRECT_JUMP: 85874 0.343496%
BRANCH_INDIRECT: 0 0%
BRANCH_CONDITIONAL: 8744101 34.9764%
BRANCH_DIRECT_CALL: 42053 0.168212%
BRANCH_INDIRECT_CALL: 0 0%
BRANCH_RETURN: 42053 0.168212%
BRANCH_OTHER: 0 0%

DRAM PAGES: 1048576
Allocated PAGES: 48857
