
*** ChampSim Multicore Out-of-Order Simulator ***

Warmup Instructions: 25000000
Simulation Instructions: 25000000
Number of CPUs: 1
LLC sets: 2048
LLC ways: 16
Off-chip DRAM Size: 4096 MB Channels: 1 Width: 64-bit Data Rate: 6400 MT/s
CPU 0 runs given/traces/trace3.champsimtrace.xz
.xz
CPU 0 Bimodal branch predictor
BTB has LRU replacement policy
ITLB has LRU replacement policy
DTLB has LRU replacement policy
STLB has LRU replacement policy
L1I has LRU replacement policy
CPU 0 L1D Optimized prefetcher
L1D has LRU replacement policy
L2C has LRU replacement policy
LLC has LRU replacement policy
Heartbeat CPU 0 instructions: 10000001 cycles: 3773639 heartbeat IPC: 2.64996 cumulative IPC: 2.64996 (Simulation time: 0 hr 0 min 34 sec) 
Heartbeat CPU 0 instructions: 20000000 cycles: 7519176 heartbeat IPC: 2.66984 cumulative IPC: 2.65987 (Simulation time: 0 hr 1 min 7 sec) 

Warmup complete CPU 0 instructions: 25000004 cycles: 9422659 (Simulation time: 0 hr 1 min 24 sec) 

IP stride coverage after phase end: 0.216806 weight: 0.206787
CPLX coverage after phase end: 0.25019 weight: 0.219881
NL stride coverage after phase end: 0.204608 weight: 0.154511
Best prefetcher: 1
Heartbeat CPU 0 instructions: 30000001 cycles: 38611572 heartbeat IPC: 0.321622 cumulative IPC: 0.171298 (Simulation time: 0 hr 1 min 59 sec) 
Heartbeat CPU 0 instructions: 40000001 cycles: 97190673 heartbeat IPC: 0.170709 cumulative IPC: 0.170905 (Simulation time: 0 hr 3 min 6 sec) 
Heartbeat CPU 0 instructions: 50000000 cycles: 159157591 heartbeat IPC: 0.161376 cumulative IPC: 0.166962 (Simulation time: 0 hr 4 min 15 sec) 
Finished CPU 0 instructions: 25000000 cycles: 149734934 cumulative IPC: 0.166962 (Simulation time: 0 hr 4 min 15 sec) 

ChampSim completed all CPUs

Region of Interest Statistics

CPU 0 cumulative IPC: 0.166962 instructions: 25000000 cycles: 149734934
ITLB TOTAL     ACCESS:    4046253  HIT:    4046253  MISS:          0  HIT %:        100  MISS %:          0   MPKI: 0
ITLB LOAD TRANSLATION ACCESS:    4046253  HIT:    4046253  MISS:          0  HIT %:        100  MISS %:          0   MPKI: 0
ITLB PREFETCH  REQUESTED:          0  ISSUED:          0  USEFUL:          0  USELESS:          0
ITLB USEFUL LOAD PREFETCHES:          0 PREFETCH ISSUED TO LOWER LEVEL:          0  ACCURACY: -nan
ITLB TIMELY PREFETCHES:          0 LATE PREFETCHES: 0 DROPPED PREFETCHES: 0
ITLB PREFETCHES SAME FILL-ORIGIN LEVEL: 0 DIFFERENT FILL-ORIGIN LEVEL: 0
ITLB AVERAGE MISS LATENCY: -nan cycles
ITLB RQ	ACCESS:    4097445	FORWARD:          0	MERGED:      51193	TO_CACHE:    4046252

DTLB TOTAL     ACCESS:    5226404  HIT:    3022366  MISS:    2204038  HIT %:    57.8288  MISS %:    42.1712   MPKI: 88.1615
DTLB LOAD TRANSLATION ACCESS:    5226404  HIT:    3022366  MISS:    2204038  HIT %:    57.8288  MISS %:    42.1712   MPKI: 88.1615
DTLB PREFETCH  REQUESTED:          0  ISSUED:          0  USEFUL:          0  USELESS:          0
DTLB USEFUL LOAD PREFETCHES:          0 PREFETCH ISSUED TO LOWER LEVEL:          0  ACCURACY: -nan
DTLB TIMELY PREFETCHES:          0 LATE PREFETCHES: 0 DROPPED PREFETCHES: 0
DTLB PREFETCHES SAME FILL-ORIGIN LEVEL: 0 DIFFERENT FILL-ORIGIN LEVEL: 0
DTLB AVERAGE MISS LATENCY: 11.2022 cycles
DTLB RQ	ACCESS:    5754240	FORWARD:          0	MERGED:     493228	TO_CACHE:    5261012

STLB TOTAL     ACCESS:    3243940  HIT:    3214908  MISS:      29032  HIT %:     99.105  MISS %:   0.894961   MPKI: 1.16128
STLB LOAD TRANSLATION ACCESS:    2204038  HIT:    2175006  MISS:      29032  HIT %:    98.6828  MISS %:    1.31722   MPKI: 1.16128
STLB TRANSLATION FROM L1D PREFETCHER ACCESS:    1039902  HIT:    1039902  MISS:          0  HIT %:        100  MISS %:          0   MPKI: 0
STLB PREFETCH  REQUESTED:          0  ISSUED:          0  USEFUL:          0  USELESS:          0
STLB USEFUL LOAD PREFETCHES:          0 PREFETCH ISSUED TO LOWER LEVEL:          0  ACCURACY: -nan
STLB TIMELY PREFETCHES:          0 LATE PREFETCHES: 0 DROPPED PREFETCHES: 0
STLB PREFETCHES SAME FILL-ORIGIN LEVEL: 0 DIFFERENT FILL-ORIGIN LEVEL: 0
STLB AVERAGE MISS LATENCY: 135.999 cycles
STLB RQ	ACCESS:    7305493	FORWARD:          0	MERGED:    4061553	TO_CACHE:    3243940

STLB Hit, L1D data hit: 0
STLB Hit, L2C data hit: 0
STLB Hit, LLC data hit: 0
STLB Hit, LLC data miss: 0
STLB STLB hints to L2: 0
L1D TOTAL     ACCESS:    9021687  HIT:    4838562  MISS:    4183125  HIT %:    53.6326  MISS %:    46.3674   MPKI: 167.325
L1D LOAD      ACCESS:    5253742  HIT:    2329831  MISS:    2923911  HIT %:    44.3461  MISS %:    55.6539   MPKI: 116.956
L1D RFO       ACCESS:     423841  HIT:     415990  MISS:       7851  HIT %:    98.1477  MISS %:    1.85235   MPKI: 0.31404
L1D PREFETCH  ACCESS:    3344104  HIT:    2092741  MISS:    1251363  HIT %:      62.58  MISS %:      37.42   MPKI: 50.0545
AGUS PREFETCH L1 MISS: 0
L1D PREFETCH  REQUESTED:   11479199  ISSUED:   11464515  USEFUL:     955700  USELESS:     295612
L1D USEFUL LOAD PREFETCHES:     955700 PREFETCH ISSUED TO LOWER LEVEL:    1432636  ACCURACY: 66.7092
L1D TIMELY PREFETCHES:     955700 LATE PREFETCHES: 181272 DROPPED PREFETCHES: 0
L1D PREFETCHES SAME FILL-ORIGIN LEVEL: 1432636 DIFFERENT FILL-ORIGIN LEVEL: 0
L1D AVERAGE MISS LATENCY: 126.064 cycles
L1D RQ	ACCESS:    8951670	FORWARD:          0	MERGED:    3575605	TO_CACHE:    5311135
L1D WQ	ACCESS:     459661	FORWARD:      65164	MERGED:      16556	TO_CACHE:     443105
L1D PQ	ACCESS:    6363060	FORWARD:          0	MERGED:    1261371	TO_CACHE:    5101455

L1D UNIQUE REGIONS ACCESSED: 0
L1D REGIONS CONFLICTS: 0
L1D Cross Page Prefetch Requests: 0
L1D Same Page Prefetch Requests: 6363060
L1D ROI Sum of L1D PQ occupancy: 72850326
L1D PREFETCHES PUSHED FROM L2C: 0
L1I TOTAL     ACCESS:    4097446  HIT:    4097446  MISS:          0  HIT %:        100  MISS %:          0   MPKI: 0
L1I LOAD      ACCESS:    4097446  HIT:    4097446  MISS:          0  HIT %:        100  MISS %:          0   MPKI: 0
L1I PREFETCH  REQUESTED:          0  ISSUED:          0  USEFUL:          0  USELESS:          0
L1I USEFUL LOAD PREFETCHES:          0 PREFETCH ISSUED TO LOWER LEVEL:          0  ACCURACY: -nan
L1I TIMELY PREFETCHES:          0 LATE PREFETCHES: 0 DROPPED PREFETCHES: 0
L1I PREFETCHES SAME FILL-ORIGIN LEVEL: 0 DIFFERENT FILL-ORIGIN LEVEL: 0
L1I AVERAGE MISS LATENCY: -nan cycles
L1I RQ	ACCESS:    5499721	FORWARD:          0	MERGED:    1402276	TO_CACHE:    4097445

BTB TOTAL     ACCESS:    7381233  HIT:    7359090  MISS:      22143  HIT %:       99.7  MISS %:   0.299991   MPKI: 0.88572
BTB BRANCH_DIRECT_JUMP	ACCESS:     954613  HIT:     954578  MISS:         35
BTB BRANCH_INDIRECT	ACCESS:          0  HIT:          0  MISS:          0
BTB BRANCH_CONDITIONAL	ACCESS:    6254608  HIT:    6254529  MISS:         79
BTB BRANCH_DIRECT_CALL	ACCESS:      79755  HIT:      79739  MISS:         16
BTB BRANCH_INDIRECT_CALL	ACCESS:       6250  HIT:       6242  MISS:          8
BTB BRANCH_RETURN	ACCESS:      86007  HIT:      64002  MISS:      22005
BTB BRANCH_OTHER ACCESS:          0  HIT:          0  MISS:          0

L2C TOTAL     ACCESS:    4292233  HIT:     502323  MISS:    3789910  HIT %:    11.7031  MISS %:    88.2969   MPKI: 151.596
L2C LOAD      ACCESS:    2742636  HIT:     381811  MISS:    2360825  HIT %:    13.9213  MISS %:    86.0787   MPKI: 94.433
L2C DATA LOAD MPKI: 94.433
L2C INSTRUCTION LOAD MPKI: 0
L2C RFO       ACCESS:       7850  HIT:        608  MISS:       7242  HIT %:    7.74522  MISS %:    92.2548   MPKI: 0.28968
L2C PREFETCH  ACCESS:    1432636  HIT:      19919  MISS:    1412717  HIT %:    1.39037  MISS %:    98.6096   MPKI: 56.5087
AGUS PREFETCH L1 MISS: 0
L2C DATA PREFETCH MPKI: 56.5087
L2C INSTRUCTION PREFETCH MPKI: 0
L2C WRITEBACK ACCESS:      79914  HIT:      79914  MISS:          0  HIT %:        100  MISS %:          0   MPKI: 0
L2C LOAD TRANSLATION ACCESS:      29197  HIT:      20071  MISS:       9126  HIT %:    68.7434  MISS %:    31.2566   MPKI: 0.36504
L2C PREFETCH  REQUESTED:          0  ISSUED:          0  USEFUL:      11360  USELESS:    1398479
L2C USEFUL LOAD PREFETCHES:      11360 PREFETCH ISSUED TO LOWER LEVEL:    1412717  ACCURACY: 0.804124
L2C TIMELY PREFETCHES:      11360 LATE PREFETCHES: 0 DROPPED PREFETCHES: 0
L2C PREFETCHES SAME FILL-ORIGIN LEVEL: 0 DIFFERENT FILL-ORIGIN LEVEL: 0
L2C AVERAGE MISS LATENCY: 122.457 cycles
L2C RQ	ACCESS:    2779686	FORWARD:          0	MERGED:          0	TO_CACHE:    2779683
L2C WQ	ACCESS:      79914	FORWARD:          3	MERGED:          0	TO_CACHE:      79914
L2C PQ	ACCESS:    1432636	FORWARD:          0	MERGED:          0	TO_CACHE:    1432636

L2C Instructions Evicting Data 0
L2C Translations Evicting Data 9101
L2C Data Evicting Data 3771698
L2C Instructions Evicting Instructions 0
L2C Translations Evicting Instructions 0
L2C Data Evicting Instructions 0
L2C Instructions Evicting Translations 0
L2C Translations Evicting Translations 25
L2C Data Evicting Translations 9086
L2C Dense regions hint from L2: 0
PSCL5 TOTAL     ACCESS:      29032  HIT:      29032  MISS:          0  HIT %:        100  MISS %:          0   MPKI: 0
PSCL5 LOAD TRANSLATION ACCESS:      29032  HIT:      29032  MISS:          0  HIT %:        100  MISS %:          0   MPKI: 0
PSCL5 PREFETCH  REQUESTED:          0  ISSUED:          0  USEFUL:          0  USELESS:          0
PSCL5 USEFUL LOAD PREFETCHES:          0 PREFETCH ISSUED TO LOWER LEVEL:          0  ACCURACY: -nan
PSCL5 TIMELY PREFETCHES:          0 LATE PREFETCHES: 0 DROPPED PREFETCHES: 0
PSCL5 PREFETCHES SAME FILL-ORIGIN LEVEL: 0 DIFFERENT FILL-ORIGIN LEVEL: 0

PSCL4 TOTAL     ACCESS:      29032  HIT:      29032  MISS:          0  HIT %:        100  MISS %:          0   MPKI: 0
PSCL4 LOAD TRANSLATION ACCESS:      29032  HIT:      29032  MISS:          0  HIT %:        100  MISS %:          0   MPKI: 0
PSCL4 PREFETCH  REQUESTED:          0  ISSUED:          0  USEFUL:          0  USELESS:          0
PSCL4 USEFUL LOAD PREFETCHES:          0 PREFETCH ISSUED TO LOWER LEVEL:          0  ACCURACY: -nan
PSCL4 TIMELY PREFETCHES:          0 LATE PREFETCHES: 0 DROPPED PREFETCHES: 0
PSCL4 PREFETCHES SAME FILL-ORIGIN LEVEL: 0 DIFFERENT FILL-ORIGIN LEVEL: 0

PSCL3 TOTAL     ACCESS:      29032  HIT:      29032  MISS:          0  HIT %:        100  MISS %:          0   MPKI: 0
PSCL3 LOAD TRANSLATION ACCESS:      29032  HIT:      29032  MISS:          0  HIT %:        100  MISS %:          0   MPKI: 0
PSCL3 PREFETCH  REQUESTED:          0  ISSUED:          0  USEFUL:          0  USELESS:          0
PSCL3 USEFUL LOAD PREFETCHES:          0 PREFETCH ISSUED TO LOWER LEVEL:          0  ACCURACY: -nan
PSCL3 TIMELY PREFETCHES:          0 LATE PREFETCHES: 0 DROPPED PREFETCHES: 0
PSCL3 PREFETCHES SAME FILL-ORIGIN LEVEL: 0 DIFFERENT FILL-ORIGIN LEVEL: 0

PSCL2 TOTAL     ACCESS:      29032  HIT:      28731  MISS:        301  HIT %:    98.9632  MISS %:    1.03679   MPKI: 0.01204
PSCL2 LOAD TRANSLATION ACCESS:      29032  HIT:      28731  MISS:        301  HIT %:    98.9632  MISS %:    1.03679   MPKI: 0.01204
PSCL2 PREFETCH  REQUESTED:          0  ISSUED:          0  USEFUL:          0  USELESS:          0
PSCL2 USEFUL LOAD PREFETCHES:          0 PREFETCH ISSUED TO LOWER LEVEL:          0  ACCURACY: -nan
PSCL2 TIMELY PREFETCHES:          0 LATE PREFETCHES: 0 DROPPED PREFETCHES: 0
PSCL2 PREFETCHES SAME FILL-ORIGIN LEVEL: 0 DIFFERENT FILL-ORIGIN LEVEL: 0

LLC TOTAL     ACCESS:    3866312  HIT:    1646689  MISS:    2219623  HIT %:    42.5907  MISS %:    57.4093   MPKI: 88.7849
LLC LOAD      ACCESS:    2360824  HIT:    1491516  MISS:     869308  HIT %:    63.1778  MISS %:    36.8222   MPKI: 34.7723
LLC RFO       ACCESS:       7242  HIT:       6072  MISS:       1170  HIT %:    83.8442  MISS %:    16.1558   MPKI: 0.0468
LLC PREFETCH  ACCESS:    1412717  HIT:      68924  MISS:    1343793  HIT %:    4.87883  MISS %:    95.1212   MPKI: 53.7517
AGUS PREFETCH L1 MISS: 0
LLC WRITEBACK ACCESS:      76403  HIT:      76314  MISS:         89  HIT %:    99.8835  MISS %:   0.116488   MPKI: 0.00356
LLC LOAD TRANSLATION ACCESS:       9126  HIT:       3863  MISS:       5263  HIT %:    42.3296  MISS %:    57.6704   MPKI: 0.21052
LLC PREFETCH  REQUESTED:          0  ISSUED:          0  USEFUL:      15080  USELESS:    1312638
LLC USEFUL LOAD PREFETCHES:      15080 PREFETCH ISSUED TO LOWER LEVEL:    1343793  ACCURACY: 1.1222
LLC TIMELY PREFETCHES:      15080 LATE PREFETCHES: 0 DROPPED PREFETCHES: 0
LLC PREFETCHES SAME FILL-ORIGIN LEVEL: 0 DIFFERENT FILL-ORIGIN LEVEL: 0
LLC AVERAGE MISS LATENCY: 157.263 cycles
LLC RQ	ACCESS:    2377193	FORWARD:          0	MERGED:          0	TO_CACHE:    2377192
LLC WQ	ACCESS:      76403	FORWARD:          1	MERGED:          0	TO_CACHE:      76403
LLC PQ	ACCESS:    1412717	FORWARD:          0	MERGED:          0	TO_CACHE:    1412717

LLC Dense regions hint to LLC: 0

RAW hits: 62657
Loads Generated: 9014327
Loads sent to L1D: 8951670
Stores Generated: 459660
Stores sent to L1D: 459661
Major fault: 0 Minor fault: 44120
Allocated PAGES: 44120
CPU 0 L1D optimized prefetcher final stats
Degree: 5
Total loads11790757

DRAM Statistics
 CHANNEL 0
 RQ ROW_BUFFER_HIT:     871771  ROW_BUFFER_MISS:    1347723
 DBUS_CONGESTED:        291
 WQ ROW_BUFFER_HIT:      10977  ROW_BUFFER_MISS:      29179  FULL:          0

 AVG_CONGESTED_CYCLE: 4
 All warmup complete: 2
Channel 0 Bank busy for read cycles: 0
Channel 0 Bank busy for write cycles: 0
Channel 0
Rank 0
0banks busy for read cycles: 48157936
0banks busy for write cycles: 14231
1banks busy for read cycles: 37367496
1banks busy for write cycles: 2760174
2banks busy for read cycles: 21578445
2banks busy for write cycles: 579315
3banks busy for read cycles: 14048861
3banks busy for write cycles: 241502
4banks busy for read cycles: 9950775
4banks busy for write cycles: 140061
5banks busy for read cycles: 6758821
5banks busy for write cycles: 113299
6banks busy for read cycles: 4144664
6banks busy for write cycles: 105761
7banks busy for read cycles: 2370956
7banks busy for write cycles: 140699
8banks busy for read cycles: 1006029
8banks busy for write cycles: 255910

CPU 0 Branch Prediction Accuracy: 96.3142% MPKI: 11.2642 Average ROB Occupancy at Mispredict: 45.798
Branch types
NOT_BRANCH: 17359361 69.4374%
BRANCH_DIRECT_JUMP: 954613 3.81845%
BRANCH_INDIRECT: 0 0%
BRANCH_CONDITIONAL: 6513665 26.0547%
BRANCH_DIRECT_CALL: 79755 0.31902%
BRANCH_INDIRECT_CALL: 6250 0.025%
BRANCH_RETURN: 86007 0.344028%
BRANCH_OTHER: 0 0%

DRAM PAGES: 1048576
Allocated PAGES: 44120
