
*** ChampSim Multicore Out-of-Order Simulator ***

Warmup Instructions: 25000000
Simulation Instructions: 25000000
Number of CPUs: 1
LLC sets: 2048
LLC ways: 16
Off-chip DRAM Size: 4096 MB Channels: 1 Width: 64-bit Data Rate: 6400 MT/s
CPU 0 runs given/traces/trace1.champsimtrace.xz
.xz
CPU 0 Bimodal branch predictor
BTB has LRU replacement policy
ITLB has LRU replacement policy
DTLB has LRU replacement policy
STLB has LRU replacement policy
L1I has LRU replacement policy
CPU 0 L1D IP-based stride prefetcher
L1D has LRU replacement policy
L2C has LRU replacement policy
LLC has LRU replacement policy
Heartbeat CPU 0 instructions: 10000003 cycles: 2832542 heartbeat IPC: 3.5304 cumulative IPC: 3.5304 (Simulation time: 0 hr 0 min 28 sec) 
Heartbeat CPU 0 instructions: 20000003 cycles: 5655886 heartbeat IPC: 3.5419 cumulative IPC: 3.53614 (Simulation time: 0 hr 0 min 55 sec) 

Warmup complete CPU 0 instructions: 25000004 cycles: 7073378 (Simulation time: 0 hr 1 min 9 sec) 

Heartbeat CPU 0 instructions: 30000002 cycles: 24261500 heartbeat IPC: 0.537472 cumulative IPC: 0.290898 (Simulation time: 0 hr 1 min 42 sec) 
Heartbeat CPU 0 instructions: 40000001 cycles: 61072967 heartbeat IPC: 0.271654 cumulative IPC: 0.27778 (Simulation time: 0 hr 2 min 51 sec) 
Heartbeat CPU 0 instructions: 50000000 cycles: 96690659 heartbeat IPC: 0.280759 cumulative IPC: 0.278964 (Simulation time: 0 hr 3 min 57 sec) 
Finished CPU 0 instructions: 25000000 cycles: 89617283 cumulative IPC: 0.278964 (Simulation time: 0 hr 3 min 57 sec) 

ChampSim completed all CPUs

Region of Interest Statistics

CPU 0 cumulative IPC: 0.278964 instructions: 25000000 cycles: 89617283
ITLB TOTAL     ACCESS:    4447729  HIT:    4447729  MISS:          0  HIT %:        100  MISS %:          0   MPKI: 0
ITLB LOAD TRANSLATION ACCESS:    4447729  HIT:    4447729  MISS:          0  HIT %:        100  MISS %:          0   MPKI: 0
ITLB PREFETCH  REQUESTED:          0  ISSUED:          0  USEFUL:          0  USELESS:          0
ITLB USEFUL LOAD PREFETCHES:          0 PREFETCH ISSUED TO LOWER LEVEL:          0  ACCURACY: -nan
ITLB TIMELY PREFETCHES:          0 LATE PREFETCHES: 0 DROPPED PREFETCHES: 0
ITLB PREFETCHES SAME FILL-ORIGIN LEVEL: 0 DIFFERENT FILL-ORIGIN LEVEL: 0
ITLB AVERAGE MISS LATENCY: -nan cycles
ITLB RQ	ACCESS:    4796656	FORWARD:          0	MERGED:     348927	TO_CACHE:    4447729

DTLB TOTAL     ACCESS:    3717428  HIT:    3054554  MISS:     662874  HIT %:    82.1685  MISS %:    17.8315   MPKI: 26.515
DTLB LOAD TRANSLATION ACCESS:    3717428  HIT:    3054554  MISS:     662874  HIT %:    82.1685  MISS %:    17.8315   MPKI: 26.515
DTLB PREFETCH  REQUESTED:          0  ISSUED:          0  USEFUL:          0  USELESS:          0
DTLB USEFUL LOAD PREFETCHES:          0 PREFETCH ISSUED TO LOWER LEVEL:          0  ACCURACY: -nan
DTLB TIMELY PREFETCHES:          0 LATE PREFETCHES: 0 DROPPED PREFETCHES: 0
DTLB PREFETCHES SAME FILL-ORIGIN LEVEL: 0 DIFFERENT FILL-ORIGIN LEVEL: 0
DTLB AVERAGE MISS LATENCY: 54.9964 cycles
DTLB RQ	ACCESS:    4317381	FORWARD:          0	MERGED:     591711	TO_CACHE:    3725670

STLB TOTAL     ACCESS:     681451  HIT:     119422  MISS:     562029  HIT %:    17.5247  MISS %:    82.4753   MPKI: 22.4812
STLB LOAD TRANSLATION ACCESS:     662874  HIT:     100847  MISS:     562027  HIT %:    15.2136  MISS %:    84.7864   MPKI: 22.4811
STLB TRANSLATION FROM L1D PREFETCHER ACCESS:      18577  HIT:      18575  MISS:          2  HIT %:    99.9892  MISS %:   0.010766   MPKI: 8e-05
STLB PREFETCH  REQUESTED:          0  ISSUED:          0  USEFUL:          0  USELESS:          2
STLB USEFUL LOAD PREFETCHES:          0 PREFETCH ISSUED TO LOWER LEVEL:          0  ACCURACY: -nan
STLB TIMELY PREFETCHES:          0 LATE PREFETCHES: 0 DROPPED PREFETCHES: 0
STLB PREFETCHES SAME FILL-ORIGIN LEVEL: 0 DIFFERENT FILL-ORIGIN LEVEL: 0
STLB AVERAGE MISS LATENCY: 54.1022 cycles
STLB RQ	ACCESS:     684389	FORWARD:          0	MERGED:       2935	TO_CACHE:     681454

STLB Hit, L1D data hit: 0
STLB Hit, L2C data hit: 0
STLB Hit, LLC data hit: 0
STLB Hit, LLC data miss: 0
STLB STLB hints to L2: 0
L1D TOTAL     ACCESS:    4319346  HIT:    3088385  MISS:    1230961  HIT %:    71.5012  MISS %:    28.4988   MPKI: 49.2384
L1D LOAD      ACCESS:    3189200  HIT:    2048522  MISS:    1140678  HIT %:    64.2331  MISS %:    35.7669   MPKI: 45.6271
L1D RFO       ACCESS:    1108666  HIT:    1039302  MISS:      69364  HIT %:    93.7435  MISS %:    6.25653   MPKI: 2.77456
L1D PREFETCH  ACCESS:      21480  HIT:        561  MISS:      20919  HIT %:    2.61173  MISS %:    97.3883   MPKI: 0.83676
AGUS PREFETCH L1 MISS: 0
L1D PREFETCH  REQUESTED:      43027  ISSUED:      43027  USEFUL:        294  USELESS:      20658
L1D USEFUL LOAD PREFETCHES:        294 PREFETCH ISSUED TO LOWER LEVEL:      20934  ACCURACY: 1.40441
L1D TIMELY PREFETCHES:        294 LATE PREFETCHES: 15 DROPPED PREFETCHES: 0
L1D PREFETCHES SAME FILL-ORIGIN LEVEL: 20934 DIFFERENT FILL-ORIGIN LEVEL: 0
L1D AVERAGE MISS LATENCY: 126.186 cycles
L1D RQ	ACCESS:    6161552	FORWARD:          0	MERGED:    2888295	TO_CACHE:    3208713
L1D WQ	ACCESS:    1108674	FORWARD:      64544	MERGED:          6	TO_CACHE:    1108668
L1D PQ	ACCESS:      21515	FORWARD:          0	MERGED:          3	TO_CACHE:      21512

L1D UNIQUE REGIONS ACCESSED: 0
L1D REGIONS CONFLICTS: 0
L1D Cross Page Prefetch Requests: 0
L1D Same Page Prefetch Requests: 93146
L1D ROI Sum of L1D PQ occupancy: 283283
L1D PREFETCHES PUSHED FROM L2C: 0
L1I TOTAL     ACCESS:    4796654  HIT:    4796654  MISS:          0  HIT %:        100  MISS %:          0   MPKI: 0
L1I LOAD      ACCESS:    4796654  HIT:    4796654  MISS:          0  HIT %:        100  MISS %:          0   MPKI: 0
L1I PREFETCH  REQUESTED:          0  ISSUED:          0  USEFUL:          0  USELESS:          0
L1I USEFUL LOAD PREFETCHES:          0 PREFETCH ISSUED TO LOWER LEVEL:          0  ACCURACY: -nan
L1I TIMELY PREFETCHES:          0 LATE PREFETCHES: 0 DROPPED PREFETCHES: 0
L1I PREFETCHES SAME FILL-ORIGIN LEVEL: 0 DIFFERENT FILL-ORIGIN LEVEL: 0
L1I AVERAGE MISS LATENCY: -nan cycles
L1I RQ	ACCESS:    7113158	FORWARD:          0	MERGED:    2316502	TO_CACHE:    4796656

BTB TOTAL     ACCESS:    3283965  HIT:    3283957  MISS:          8  HIT %:    99.9998  MISS %: 0.000243608   MPKI: 0.00032
BTB BRANCH_DIRECT_JUMP	ACCESS:     568311  HIT:     568309  MISS:          2
BTB BRANCH_INDIRECT	ACCESS:          0  HIT:          0  MISS:          0
BTB BRANCH_CONDITIONAL	ACCESS:    1606986  HIT:    1606982  MISS:          4
BTB BRANCH_DIRECT_CALL	ACCESS:     554334  HIT:     554333  MISS:          1
BTB BRANCH_INDIRECT_CALL	ACCESS:          0  HIT:          0  MISS:          0
BTB BRANCH_RETURN	ACCESS:     554334  HIT:     554333  MISS:          1
BTB BRANCH_OTHER ACCESS:          0  HIT:          0  MISS:          0

L2C TOTAL     ACCESS:    2424167  HIT:    1406390  MISS:    1017777  HIT %:    58.0154  MISS %:    41.9846   MPKI: 40.7111
L2C LOAD      ACCESS:    1140662  HIT:     419947  MISS:     720715  HIT %:    36.8161  MISS %:    63.1839   MPKI: 28.8286
L2C DATA LOAD MPKI: 28.8286
L2C INSTRUCTION LOAD MPKI: 0
L2C RFO       ACCESS:      69364  HIT:      41088  MISS:      28276  HIT %:    59.2353  MISS %:    40.7647   MPKI: 1.13104
L2C PREFETCH  ACCESS:      20934  HIT:       1894  MISS:      19040  HIT %:    9.04748  MISS %:    90.9525   MPKI: 0.7616
AGUS PREFETCH L1 MISS: 0
L2C DATA PREFETCH MPKI: 0.7616
L2C INSTRUCTION PREFETCH MPKI: 0
L2C WRITEBACK ACCESS:     554335  HIT:     554335  MISS:          0  HIT %:        100  MISS %:          0   MPKI: 0
L2C LOAD TRANSLATION ACCESS:     638868  HIT:     389125  MISS:     249743  HIT %:    60.9085  MISS %:    39.0915   MPKI: 9.98972
L2C TRANSLATION FROM L1D PREFETCHER ACCESS:          4  HIT:          1  MISS:          3  HIT %:         25  MISS %:         75   MPKI: 0.00012
L2C PREFETCH  REQUESTED:          0  ISSUED:          0  USEFUL:         18  USELESS:      19273
L2C USEFUL LOAD PREFETCHES:         18 PREFETCH ISSUED TO LOWER LEVEL:      19040  ACCURACY: 0.0945378
L2C TIMELY PREFETCHES:         18 LATE PREFETCHES: 0 DROPPED PREFETCHES: 0
L2C PREFETCHES SAME FILL-ORIGIN LEVEL: 0 DIFFERENT FILL-ORIGIN LEVEL: 0
L2C AVERAGE MISS LATENCY: 142.932 cycles
L2C RQ	ACCESS:    1848899	FORWARD:          0	MERGED:          0	TO_CACHE:    1848899
L2C WQ	ACCESS:     554335	FORWARD:          0	MERGED:          0	TO_CACHE:     554335
L2C PQ	ACCESS:      20934	FORWARD:          0	MERGED:          0	TO_CACHE:      20934

L2C Instructions Evicting Data 0
L2C Translations Evicting Data 150727
L2C Data Evicting Data 617281
L2C Instructions Evicting Instructions 0
L2C Translations Evicting Instructions 0
L2C Data Evicting Instructions 0
L2C Instructions Evicting Translations 0
L2C Translations Evicting Translations 99019
L2C Data Evicting Translations 150750
L2C Dense regions hint from L2: 0
PSCL5 TOTAL     ACCESS:     562030  HIT:     562030  MISS:          0  HIT %:        100  MISS %:          0   MPKI: 0
PSCL5 LOAD TRANSLATION ACCESS:     562028  HIT:     562028  MISS:          0  HIT %:        100  MISS %:          0   MPKI: 0
PSCL5 TRANSLATION FROM L1D PREFETCHER ACCESS:          2  HIT:          2  MISS:          0  HIT %:        100  MISS %:          0   MPKI: 0
PSCL5 PREFETCH  REQUESTED:          0  ISSUED:          0  USEFUL:          0  USELESS:          0
PSCL5 USEFUL LOAD PREFETCHES:          0 PREFETCH ISSUED TO LOWER LEVEL:          0  ACCURACY: -nan
PSCL5 TIMELY PREFETCHES:          0 LATE PREFETCHES: 0 DROPPED PREFETCHES: 0
PSCL5 PREFETCHES SAME FILL-ORIGIN LEVEL: 0 DIFFERENT FILL-ORIGIN LEVEL: 0

PSCL4 TOTAL     ACCESS:     562030  HIT:     562030  MISS:          0  HIT %:        100  MISS %:          0   MPKI: 0
PSCL4 LOAD TRANSLATION ACCESS:     562028  HIT:     562028  MISS:          0  HIT %:        100  MISS %:          0   MPKI: 0
PSCL4 TRANSLATION FROM L1D PREFETCHER ACCESS:          2  HIT:          2  MISS:          0  HIT %:        100  MISS %:          0   MPKI: 0
PSCL4 PREFETCH  REQUESTED:          0  ISSUED:          0  USEFUL:          0  USELESS:          0
PSCL4 USEFUL LOAD PREFETCHES:          0 PREFETCH ISSUED TO LOWER LEVEL:          0  ACCURACY: -nan
PSCL4 TIMELY PREFETCHES:          0 LATE PREFETCHES: 0 DROPPED PREFETCHES: 0
PSCL4 PREFETCHES SAME FILL-ORIGIN LEVEL: 0 DIFFERENT FILL-ORIGIN LEVEL: 0

PSCL3 TOTAL     ACCESS:     562030  HIT:     562030  MISS:          0  HIT %:        100  MISS %:          0   MPKI: 0
PSCL3 LOAD TRANSLATION ACCESS:     562028  HIT:     562028  MISS:          0  HIT %:        100  MISS %:          0   MPKI: 0
PSCL3 TRANSLATION FROM L1D PREFETCHER ACCESS:          2  HIT:          2  MISS:          0  HIT %:        100  MISS %:          0   MPKI: 0
PSCL3 PREFETCH  REQUESTED:          0  ISSUED:          0  USEFUL:          0  USELESS:          0
PSCL3 USEFUL LOAD PREFETCHES:          0 PREFETCH ISSUED TO LOWER LEVEL:          0  ACCURACY: -nan
PSCL3 TIMELY PREFETCHES:          0 LATE PREFETCHES: 0 DROPPED PREFETCHES: 0
PSCL3 PREFETCHES SAME FILL-ORIGIN LEVEL: 0 DIFFERENT FILL-ORIGIN LEVEL: 0

PSCL2 TOTAL     ACCESS:     562030  HIT:     485187  MISS:      76843  HIT %:    86.3276  MISS %:    13.6724   MPKI: 3.07372
PSCL2 LOAD TRANSLATION ACCESS:     562030  HIT:     485187  MISS:      76843  HIT %:    86.3276  MISS %:    13.6724   MPKI: 3.07372
PSCL2 PREFETCH  REQUESTED:          0  ISSUED:          0  USEFUL:          0  USELESS:          0
PSCL2 USEFUL LOAD PREFETCHES:          0 PREFETCH ISSUED TO LOWER LEVEL:          0  ACCURACY: -nan
PSCL2 TIMELY PREFETCHES:          0 LATE PREFETCHES: 0 DROPPED PREFETCHES: 0
PSCL2 PREFETCHES SAME FILL-ORIGIN LEVEL: 0 DIFFERENT FILL-ORIGIN LEVEL: 0

LLC TOTAL     ACCESS:    1572366  HIT:     904114  MISS:     668252  HIT %:    57.5002  MISS %:    42.4998   MPKI: 26.7301
LLC LOAD      ACCESS:     720715  HIT:      79229  MISS:     641486  HIT %:    10.9931  MISS %:    89.0069   MPKI: 25.6594
LLC RFO       ACCESS:      28276  HIT:      28272  MISS:          4  HIT %:    99.9859  MISS %:  0.0141463   MPKI: 0.00016
LLC PREFETCH  ACCESS:      19040  HIT:        662  MISS:      18378  HIT %:    3.47689  MISS %:    96.5231   MPKI: 0.73512
AGUS PREFETCH L1 MISS: 0
LLC WRITEBACK ACCESS:     554589  HIT:     554589  MISS:          0  HIT %:        100  MISS %:          0   MPKI: 0
LLC LOAD TRANSLATION ACCESS:     249743  HIT:     241359  MISS:       8384  HIT %:    96.6429  MISS %:    3.35705   MPKI: 0.33536
LLC TRANSLATION FROM L1D PREFETCHER ACCESS:          3  HIT:          3  MISS:          0  HIT %:        100  MISS %:          0   MPKI: 0
LLC PREFETCH  REQUESTED:          0  ISSUED:          0  USEFUL:         13  USELESS:      19809
LLC USEFUL LOAD PREFETCHES:         13 PREFETCH ISSUED TO LOWER LEVEL:      18378  ACCURACY: 0.0707368
LLC TIMELY PREFETCHES:         13 LATE PREFETCHES: 0 DROPPED PREFETCHES: 0
LLC PREFETCHES SAME FILL-ORIGIN LEVEL: 0 DIFFERENT FILL-ORIGIN LEVEL: 0
LLC AVERAGE MISS LATENCY: 171.811 cycles
LLC RQ	ACCESS:     998738	FORWARD:          0	MERGED:          0	TO_CACHE:     998738
LLC WQ	ACCESS:     554588	FORWARD:          0	MERGED:          0	TO_CACHE:     554588
LLC PQ	ACCESS:      19040	FORWARD:          0	MERGED:          0	TO_CACHE:      19040

LLC Dense regions hint to LLC: 0

RAW hits: 488980
Loads Generated: 6650535
Loads sent to L1D: 6161552
Stores Generated: 1108672
Stores sent to L1D: 1108674
Major fault: 0 Minor fault: 23115
Allocated PAGES: 23115
CPU 0 L1D IP-based stride prefetcher final stats
Degree: 5

DRAM Statistics
 CHANNEL 0
 RQ ROW_BUFFER_HIT:       1075  ROW_BUFFER_MISS:     667177
 DBUS_CONGESTED:          7
 WQ ROW_BUFFER_HIT:     196508  ROW_BUFFER_MISS:     356536  FULL:          0

 AVG_CONGESTED_CYCLE: 3
 All warmup complete: 2
Channel 0 Bank busy for read cycles: 0
Channel 0 Bank busy for write cycles: 0
Channel 0
Rank 0
0banks busy for read cycles: 2786913
0banks busy for write cycles: 62043
1banks busy for read cycles: 22177574
1banks busy for write cycles: 4974414
2banks busy for read cycles: 14443559
2banks busy for write cycles: 6956550
3banks busy for read cycles: 10926637
3banks busy for write cycles: 9410171
4banks busy for read cycles: 3716579
4banks busy for write cycles: 7796340
5banks busy for read cycles: 278875
5banks busy for write cycles: 3481088
6banks busy for read cycles: 2825
6banks busy for write cycles: 1405784
7banks busy for read cycles: 1183
7banks busy for write cycles: 693296
8banks busy for read cycles: 25
8banks busy for write cycles: 503428

CPU 0 Branch Prediction Accuracy: 99.9685% MPKI: 0.04912 Average ROB Occupancy at Mispredict: 156.02
Branch types
NOT_BRANCH: 21105652 84.4226%
BRANCH_DIRECT_JUMP: 568311 2.27324%
BRANCH_INDIRECT: 0 0%
BRANCH_CONDITIONAL: 2217337 8.86935%
BRANCH_DIRECT_CALL: 554334 2.21734%
BRANCH_INDIRECT_CALL: 0 0%
BRANCH_RETURN: 554334 2.21734%
BRANCH_OTHER: 0 0%

DRAM PAGES: 1048576
Allocated PAGES: 23115
