
*** ChampSim Multicore Out-of-Order Simulator ***

Warmup Instructions: 25000000
Simulation Instructions: 25000000
Number of CPUs: 1
LLC sets: 2048
LLC ways: 16
Off-chip DRAM Size: 4096 MB Channels: 1 Width: 64-bit Data Rate: 6400 MT/s
CPU 0 runs given/traces/trace2.champsimtrace.xz
.xz
CPU 0 Bimodal branch predictor
BTB has LRU replacement policy
ITLB has LRU replacement policy
DTLB has LRU replacement policy
STLB has LRU replacement policy
L1I has LRU replacement policy
CPU 0 L1D IP-based stride prefetcher
L1D has LRU replacement policy
L2C has LRU replacement policy
LLC has LRU replacement policy
Heartbeat CPU 0 instructions: 10000002 cycles: 3738053 heartbeat IPC: 2.67519 cumulative IPC: 2.67519 (Simulation time: 0 hr 0 min 33 sec) 
Heartbeat CPU 0 instructions: 20000001 cycles: 7477807 heartbeat IPC: 2.67397 cumulative IPC: 2.67458 (Simulation time: 0 hr 1 min 6 sec) 

Warmup complete CPU 0 instructions: 25000001 cycles: 9346719 (Simulation time: 0 hr 1 min 23 sec) 

Heartbeat CPU 0 instructions: 30000001 cycles: 25129242 heartbeat IPC: 0.566526 cumulative IPC: 0.316806 (Simulation time: 0 hr 1 min 51 sec) 
Heartbeat CPU 0 instructions: 40000002 cycles: 56414217 heartbeat IPC: 0.319642 cumulative IPC: 0.318691 (Simulation time: 0 hr 2 min 47 sec) 
Heartbeat CPU 0 instructions: 50000000 cycles: 86625685 heartbeat IPC: 0.331 cumulative IPC: 0.323503 (Simulation time: 0 hr 3 min 43 sec) 
Finished CPU 0 instructions: 25000000 cycles: 77278988 cumulative IPC: 0.323503 (Simulation time: 0 hr 3 min 43 sec) 

ChampSim completed all CPUs

Region of Interest Statistics

CPU 0 cumulative IPC: 0.323503 instructions: 25000000 cycles: 77278988
ITLB TOTAL     ACCESS:    4618536  HIT:    4618536  MISS:          0  HIT %:        100  MISS %:          0   MPKI: 0
ITLB LOAD TRANSLATION ACCESS:    4618536  HIT:    4618536  MISS:          0  HIT %:        100  MISS %:          0   MPKI: 0
ITLB PREFETCH  REQUESTED:          0  ISSUED:          0  USEFUL:          0  USELESS:          0
ITLB USEFUL LOAD PREFETCHES:          0 PREFETCH ISSUED TO LOWER LEVEL:          0  ACCURACY: -nan
ITLB TIMELY PREFETCHES:          0 LATE PREFETCHES: 0 DROPPED PREFETCHES: 0
ITLB PREFETCHES SAME FILL-ORIGIN LEVEL: 0 DIFFERENT FILL-ORIGIN LEVEL: 0
ITLB AVERAGE MISS LATENCY: -nan cycles
ITLB RQ	ACCESS:    4703950	FORWARD:          0	MERGED:      85415	TO_CACHE:    4618535

DTLB TOTAL     ACCESS:    3869688  HIT:    3835675  MISS:      34013  HIT %:     99.121  MISS %:    0.87896   MPKI: 1.36052
DTLB LOAD TRANSLATION ACCESS:    3869688  HIT:    3835675  MISS:      34013  HIT %:     99.121  MISS %:    0.87896   MPKI: 1.36052
DTLB PREFETCH  REQUESTED:          0  ISSUED:          0  USEFUL:          0  USELESS:          0
DTLB USEFUL LOAD PREFETCHES:          0 PREFETCH ISSUED TO LOWER LEVEL:          0  ACCURACY: -nan
DTLB TIMELY PREFETCHES:          0 LATE PREFETCHES: 0 DROPPED PREFETCHES: 0
DTLB PREFETCHES SAME FILL-ORIGIN LEVEL: 0 DIFFERENT FILL-ORIGIN LEVEL: 0
DTLB AVERAGE MISS LATENCY: 106.639 cycles
DTLB RQ	ACCESS:    4553737	FORWARD:          0	MERGED:     683926	TO_CACHE:    3869811

STLB TOTAL     ACCESS:    1517352  HIT:    1484648  MISS:      32704  HIT %:    97.8447  MISS %:    2.15533   MPKI: 1.30816
STLB LOAD TRANSLATION ACCESS:      34013  HIT:       1309  MISS:      32704  HIT %:    3.84853  MISS %:    96.1515   MPKI: 1.30816
STLB TRANSLATION FROM L1D PREFETCHER ACCESS:    1483339  HIT:    1483339  MISS:          0  HIT %:        100  MISS %:          0   MPKI: 0
STLB PREFETCH  REQUESTED:          0  ISSUED:          0  USEFUL:          0  USELESS:          0
STLB USEFUL LOAD PREFETCHES:          0 PREFETCH ISSUED TO LOWER LEVEL:          0  ACCURACY: -nan
STLB TIMELY PREFETCHES:          0 LATE PREFETCHES: 0 DROPPED PREFETCHES: 0
STLB PREFETCHES SAME FILL-ORIGIN LEVEL: 0 DIFFERENT FILL-ORIGIN LEVEL: 0
STLB AVERAGE MISS LATENCY: 101.535 cycles
STLB RQ	ACCESS:    7194986	FORWARD:          0	MERGED:    5677634	TO_CACHE:    1517352

STLB Hit, L1D data hit: 0
STLB Hit, L2C data hit: 0
STLB Hit, LLC data hit: 0
STLB Hit, LLC data miss: 0
STLB STLB hints to L2: 0
L1D TOTAL     ACCESS:    6920436  HIT:    5152040  MISS:    1768396  HIT %:    74.4468  MISS %:    25.5532   MPKI: 70.7358
L1D LOAD      ACCESS:    4188439  HIT:    3786765  MISS:     401674  HIT %:    90.4099  MISS %:    9.59006   MPKI: 16.067
L1D RFO       ACCESS:     333352  HIT:     332735  MISS:        617  HIT %:    99.8149  MISS %:    0.18509   MPKI: 0.02468
L1D PREFETCH  ACCESS:    2398645  HIT:    1032540  MISS:    1366105  HIT %:    43.0468  MISS %:    56.9532   MPKI: 54.6442
AGUS PREFETCH L1 MISS: 0
L1D PREFETCH  REQUESTED:   14343903  ISSUED:   14343903  USEFUL:    1347586  USELESS:      18534
L1D USEFUL LOAD PREFETCHES:    1347586 PREFETCH ISSUED TO LOWER LEVEL:    1670784  ACCURACY: 80.6559
L1D TIMELY PREFETCHES:    1347586 LATE PREFETCHES: 304672 DROPPED PREFETCHES: 0
L1D PREFETCHES SAME FILL-ORIGIN LEVEL: 1670784 DIFFERENT FILL-ORIGIN LEVEL: 0
L1D AVERAGE MISS LATENCY: 121.192 cycles
L1D RQ	ACCESS:    8972927	FORWARD:          0	MERGED:    4750991	TO_CACHE:    4220381
L1D WQ	ACCESS:     370377	FORWARD:       1555	MERGED:      37021	TO_CACHE:     333356
L1D PQ	ACCESS:    7182930	FORWARD:          0	MERGED:      21957	TO_CACHE:    7160973

L1D UNIQUE REGIONS ACCESSED: 0
L1D REGIONS CONFLICTS: 0
L1D Cross Page Prefetch Requests: 0
L1D Same Page Prefetch Requests: 20463952
L1D ROI Sum of L1D PQ occupancy: 100583106
L1D PREFETCHES PUSHED FROM L2C: 0
L1I TOTAL     ACCESS:    4703950  HIT:    4703950  MISS:          0  HIT %:        100  MISS %:          0   MPKI: 0
L1I LOAD      ACCESS:    4703950  HIT:    4703950  MISS:          0  HIT %:        100  MISS %:          0   MPKI: 0
L1I PREFETCH  REQUESTED:          0  ISSUED:          0  USEFUL:          0  USELESS:          0
L1I USEFUL LOAD PREFETCHES:          0 PREFETCH ISSUED TO LOWER LEVEL:          0  ACCURACY: -nan
L1I TIMELY PREFETCHES:          0 LATE PREFETCHES: 0 DROPPED PREFETCHES: 0
L1I PREFETCHES SAME FILL-ORIGIN LEVEL: 0 DIFFERENT FILL-ORIGIN LEVEL: 0
L1I AVERAGE MISS LATENCY: -nan cycles
L1I RQ	ACCESS:    7068420	FORWARD:          0	MERGED:    2364470	TO_CACHE:    4703950

BTB TOTAL     ACCESS:    5953193  HIT:    5953095  MISS:         98  HIT %:    99.9984  MISS %: 0.00164618   MPKI: 0.00392
BTB BRANCH_DIRECT_JUMP	ACCESS:      85874  HIT:      85848  MISS:         26
BTB BRANCH_INDIRECT	ACCESS:          0  HIT:          0  MISS:          0
BTB BRANCH_CONDITIONAL	ACCESS:    5783213  HIT:    5783164  MISS:         49
BTB BRANCH_DIRECT_CALL	ACCESS:      42053  HIT:      42043  MISS:         10
BTB BRANCH_INDIRECT_CALL	ACCESS:          0  HIT:          0  MISS:          0
BTB BRANCH_RETURN	ACCESS:      42053  HIT:      42040  MISS:         13
BTB BRANCH_OTHER ACCESS:          0  HIT:          0  MISS:          0

L2C TOTAL     ACCESS:    1804527  HIT:      33557  MISS:    1770970  HIT %:     1.8596  MISS %:    98.1404   MPKI: 70.8388
L2C LOAD      ACCESS:      97001  HIT:       1464  MISS:      95537  HIT %:    1.50926  MISS %:    98.4907   MPKI: 3.82148
L2C DATA LOAD MPKI: 3.82148
L2C INSTRUCTION LOAD MPKI: 0
L2C RFO       ACCESS:        610  HIT:         18  MISS:        592  HIT %:    2.95082  MISS %:    97.0492   MPKI: 0.02368
L2C PREFETCH  ACCESS:    1670784  HIT:       3459  MISS:    1667325  HIT %:   0.207029  MISS %:     99.793   MPKI: 66.693
AGUS PREFETCH L1 MISS: 0
L2C DATA PREFETCH MPKI: 66.693
L2C INSTRUCTION PREFETCH MPKI: 0
L2C WRITEBACK ACCESS:       2774  HIT:       2768  MISS:          6  HIT %:    99.7837  MISS %:   0.216294   MPKI: 0.00024
L2C LOAD TRANSLATION ACCESS:      33358  HIT:      25848  MISS:       7510  HIT %:    77.4867  MISS %:    22.5133   MPKI: 0.3004
L2C PREFETCH  REQUESTED:          0  ISSUED:          0  USEFUL:        954  USELESS:    1666355
L2C USEFUL LOAD PREFETCHES:        954 PREFETCH ISSUED TO LOWER LEVEL:    1667325  ACCURACY: 0.0572174
L2C TIMELY PREFETCHES:        954 LATE PREFETCHES: 0 DROPPED PREFETCHES: 0
L2C PREFETCHES SAME FILL-ORIGIN LEVEL: 0 DIFFERENT FILL-ORIGIN LEVEL: 0
L2C AVERAGE MISS LATENCY: 106.609 cycles
L2C RQ	ACCESS:     130970	FORWARD:          0	MERGED:          0	TO_CACHE:     130969
L2C WQ	ACCESS:       2774	FORWARD:          1	MERGED:          0	TO_CACHE:       2774
L2C PQ	ACCESS:    1670784	FORWARD:          0	MERGED:          0	TO_CACHE:    1670784

L2C Instructions Evicting Data 0
L2C Translations Evicting Data 7483
L2C Data Evicting Data 1755985
L2C Instructions Evicting Instructions 0
L2C Translations Evicting Instructions 0
L2C Data Evicting Instructions 0
L2C Instructions Evicting Translations 0
L2C Translations Evicting Translations 27
L2C Data Evicting Translations 7469
L2C Dense regions hint from L2: 0
PSCL5 TOTAL     ACCESS:      32704  HIT:      32704  MISS:          0  HIT %:        100  MISS %:          0   MPKI: 0
PSCL5 LOAD TRANSLATION ACCESS:      32704  HIT:      32704  MISS:          0  HIT %:        100  MISS %:          0   MPKI: 0
PSCL5 PREFETCH  REQUESTED:          0  ISSUED:          0  USEFUL:          0  USELESS:          0
PSCL5 USEFUL LOAD PREFETCHES:          0 PREFETCH ISSUED TO LOWER LEVEL:          0  ACCURACY: -nan
PSCL5 TIMELY PREFETCHES:          0 LATE PREFETCHES: 0 DROPPED PREFETCHES: 0
PSCL5 PREFETCHES SAME FILL-ORIGIN LEVEL: 0 DIFFERENT FILL-ORIGIN LEVEL: 0

PSCL4 TOTAL     ACCESS:      32704  HIT:      32704  MISS:          0  HIT %:        100  MISS %:          0   MPKI: 0
PSCL4 LOAD TRANSLATION ACCESS:      32704  HIT:      32704  MISS:          0  HIT %:        100  MISS %:          0   MPKI: 0
PSCL4 PREFETCH  REQUESTED:          0  ISSUED:          0  USEFUL:          0  USELESS:          0
PSCL4 USEFUL LOAD PREFETCHES:          0 PREFETCH ISSUED TO LOWER LEVEL:          0  ACCURACY: -nan
PSCL4 TIMELY PREFETCHES:          0 LATE PREFETCHES: 0 DROPPED PREFETCHES: 0
PSCL4 PREFETCHES SAME FILL-ORIGIN LEVEL: 0 DIFFERENT FILL-ORIGIN LEVEL: 0

PSCL3 TOTAL     ACCESS:      32704  HIT:      32701  MISS:          3  HIT %:    99.9908  MISS %: 0.00917319   MPKI: 0.00012
PSCL3 LOAD TRANSLATION ACCESS:      32704  HIT:      32701  MISS:          3  HIT %:    99.9908  MISS %: 0.00917319   MPKI: 0.00012
PSCL3 PREFETCH  REQUESTED:          0  ISSUED:          0  USEFUL:          0  USELESS:          0
PSCL3 USEFUL LOAD PREFETCHES:          0 PREFETCH ISSUED TO LOWER LEVEL:          0  ACCURACY: -nan
PSCL3 TIMELY PREFETCHES:          0 LATE PREFETCHES: 0 DROPPED PREFETCHES: 0
PSCL3 PREFETCHES SAME FILL-ORIGIN LEVEL: 0 DIFFERENT FILL-ORIGIN LEVEL: 0

PSCL2 TOTAL     ACCESS:      32704  HIT:      31955  MISS:        749  HIT %:    97.7098  MISS %:    2.29024   MPKI: 0.02996
PSCL2 LOAD TRANSLATION ACCESS:      32704  HIT:      31955  MISS:        749  HIT %:    97.7098  MISS %:    2.29024   MPKI: 0.02996
PSCL2 PREFETCH  REQUESTED:          0  ISSUED:          0  USEFUL:          0  USELESS:          0
PSCL2 USEFUL LOAD PREFETCHES:          0 PREFETCH ISSUED TO LOWER LEVEL:          0  ACCURACY: -nan
PSCL2 TIMELY PREFETCHES:          0 LATE PREFETCHES: 0 DROPPED PREFETCHES: 0
PSCL2 PREFETCHES SAME FILL-ORIGIN LEVEL: 0 DIFFERENT FILL-ORIGIN LEVEL: 0

LLC TOTAL     ACCESS:    1773732  HIT:       3223  MISS:    1770509  HIT %:   0.181707  MISS %:    99.8183   MPKI: 70.8204
LLC LOAD      ACCESS:      95537  HIT:         83  MISS:      95454  HIT %:  0.0868773  MISS %:    99.9131   MPKI: 3.81816
LLC RFO       ACCESS:        592  HIT:          0  MISS:        592  HIT %:          0  MISS %:        100   MPKI: 0.02368
LLC PREFETCH  ACCESS:    1667325  HIT:         49  MISS:    1667276  HIT %: 0.00293884  MISS %:    99.9971   MPKI: 66.691
AGUS PREFETCH L1 MISS: 0
LLC WRITEBACK ACCESS:       2768  HIT:       2762  MISS:          6  HIT %:    99.7832  MISS %:   0.216763   MPKI: 0.00024
LLC LOAD TRANSLATION ACCESS:       7510  HIT:        329  MISS:       7181  HIT %:    4.38083  MISS %:    95.6192   MPKI: 0.28724
LLC PREFETCH  REQUESTED:          0  ISSUED:          0  USEFUL:         32  USELESS:    1666762
LLC USEFUL LOAD PREFETCHES:         32 PREFETCH ISSUED TO LOWER LEVEL:    1667276  ACCURACY: 0.0019193
LLC TIMELY PREFETCHES:         32 LATE PREFETCHES: 0 DROPPED PREFETCHES: 0
LLC PREFETCHES SAME FILL-ORIGIN LEVEL: 0 DIFFERENT FILL-ORIGIN LEVEL: 0
LLC AVERAGE MISS LATENCY: 76.5665 cycles
LLC RQ	ACCESS:     103639	FORWARD:          0	MERGED:          0	TO_CACHE:     103639
LLC WQ	ACCESS:       2768	FORWARD:          0	MERGED:          0	TO_CACHE:       2768
LLC PQ	ACCESS:    1667325	FORWARD:          0	MERGED:          0	TO_CACHE:    1667325

LLC Dense regions hint to LLC: 0

RAW hits: 4020
Loads Generated: 8976947
Loads sent to L1D: 8972927
Stores Generated: 370377
Stores sent to L1D: 370377
Major fault: 0 Minor fault: 48857
Allocated PAGES: 48857
CPU 0 L1D IP-based stride prefetcher final stats
Degree: 5

DRAM Statistics
 CHANNEL 0
 RQ ROW_BUFFER_HIT:    1658719  ROW_BUFFER_MISS:     111784
 DBUS_CONGESTED:        247
 WQ ROW_BUFFER_HIT:        376  ROW_BUFFER_MISS:       2384  FULL:          0

 AVG_CONGESTED_CYCLE: 5
 All warmup complete: 2
Channel 0 Bank busy for read cycles: 0
Channel 0 Bank busy for write cycles: 0
Channel 0
Rank 0
0banks busy for read cycles: 26762802
0banks busy for write cycles: 1430
1banks busy for read cycles: 17565246
1banks busy for write cycles: 267307
2banks busy for read cycles: 24475530
2banks busy for write cycles: 115419
3banks busy for read cycles: 3404335
3banks busy for write cycles: 54753
4banks busy for read cycles: 1581977
4banks busy for write cycles: 18371
5banks busy for read cycles: 1467891
5banks busy for write cycles: 9176
6banks busy for read cycles: 1538558
6banks busy for write cycles: 3339
7banks busy for read cycles: 10518
7banks busy for write cycles: 1556
8banks busy for read cycles: 490
8banks busy for write cycles: 291

CPU 0 Branch Prediction Accuracy: 99.1323% MPKI: 3.09396 Average ROB Occupancy at Mispredict: 112.845
Branch types
NOT_BRANCH: 16085563 64.3423%
BRANCH_DIRECT_JUMP: 85874 0.343496%
BRANCH_INDIRECT: 0 0%
BRANCH_CONDITIONAL: 8744101 34.9764%
BRANCH_DIRECT_CALL: 42053 0.168212%
BRANCH_INDIRECT_CALL: 0 0%
BRANCH_RETURN: 42053 0.168212%
BRANCH_OTHER: 0 0%

DRAM PAGES: 1048576
Allocated PAGES: 48857
