
*** ChampSim Multicore Out-of-Order Simulator ***

Warmup Instructions: 25000000
Simulation Instructions: 25000000
Number of CPUs: 1
LLC sets: 2048
LLC ways: 16
Off-chip DRAM Size: 4096 MB Channels: 1 Width: 64-bit Data Rate: 6400 MT/s
CPU 0 runs given/traces/trace3.champsimtrace.xz
.xz
CPU 0 Bimodal branch predictor
BTB has LRU replacement policy
ITLB has LRU replacement policy
DTLB has LRU replacement policy
CPU 0 STLB arbitrary stride prefetcher
STLB has LRU replacement policy
L1I has LRU replacement policy
CPU 0 L1D Optimized prefetcher
L1D has LRU replacement policy
L2C has LRU replacement policy
LLC has LRU replacement policy
Heartbeat CPU 0 instructions: 10000001 cycles: 3779737 heartbeat IPC: 2.64569 cumulative IPC: 2.64569 (Simulation time: 0 hr 0 min 35 sec) 
Heartbeat CPU 0 instructions: 20000000 cycles: 7531746 heartbeat IPC: 2.66524 cumulative IPC: 2.65543 (Simulation time: 0 hr 1 min 9 sec) 

Warmup complete CPU 0 instructions: 25000004 cycles: 9438350 (Simulation time: 0 hr 1 min 26 sec) 

Useful: 1560 Total: 8536
IP stride accuracy after phase end: 18.2755
Useful: 112 Total: 2474
CPLX accuracy after phase end: 4.52708
Useful: 131 Total: 4510
NL stride accuracy after phase end: 2.90466
Most accurate prefetcher: 0
Heartbeat CPU 0 instructions: 30000001 cycles: 37255062 heartbeat IPC: 0.336436 cumulative IPC: 0.179748 (Simulation time: 0 hr 1 min 58 sec) 
Retire attempted: 68309469 Failed due to ip: 1668697 Failed due to non completion: 0 Retired instructions: 35733312
Heartbeat CPU 0 instructions: 40000002 cycles: 93205024 heartbeat IPC: 0.178731 cumulative IPC: 0.179069 (Simulation time: 0 hr 3 min 3 sec) 
Heartbeat CPU 0 instructions: 50000000 cycles: 152508938 heartbeat IPC: 0.168623 cumulative IPC: 0.174739 (Simulation time: 0 hr 4 min 9 sec) 
Finished CPU 0 instructions: 25000000 cycles: 143070590 cumulative IPC: 0.174739 (Simulation time: 0 hr 4 min 9 sec) 

ChampSim completed all CPUs

Region of Interest Statistics

CPU 0 cumulative IPC: 0.174739 instructions: 25000000 cycles: 143070590
ITLB TOTAL     ACCESS:    4035088  HIT:    4035088  MISS:          0  HIT %:        100  MISS %:          0   MPKI: 0
ITLB LOAD TRANSLATION ACCESS:    4035088  HIT:    4035088  MISS:          0  HIT %:        100  MISS %:          0   MPKI: 0
ITLB PREFETCH  REQUESTED:          0  ISSUED:          0  USEFUL:          0  USELESS:          0
ITLB USEFUL LOAD PREFETCHES:          0 PREFETCH ISSUED TO LOWER LEVEL:          0  ACCURACY: -nan
ITLB TIMELY PREFETCHES:          0 LATE PREFETCHES: 0 DROPPED PREFETCHES: 0
ITLB PREFETCHES SAME FILL-ORIGIN LEVEL: 0 DIFFERENT FILL-ORIGIN LEVEL: 0
ITLB AVERAGE MISS LATENCY: -nan cycles
ITLB RQ	ACCESS:    4086343	FORWARD:          0	MERGED:      51256	TO_CACHE:    4035087

DTLB TOTAL     ACCESS:    5227650  HIT:    3023745  MISS:    2203905  HIT %:    57.8414  MISS %:    42.1586   MPKI: 88.1562
DTLB LOAD TRANSLATION ACCESS:    5227650  HIT:    3023745  MISS:    2203905  HIT %:    57.8414  MISS %:    42.1586   MPKI: 88.1562
DTLB PREFETCH  REQUESTED:          0  ISSUED:          0  USEFUL:          0  USELESS:          0
DTLB USEFUL LOAD PREFETCHES:          0 PREFETCH ISSUED TO LOWER LEVEL:          0  ACCURACY: -nan
DTLB TIMELY PREFETCHES:          0 LATE PREFETCHES: 0 DROPPED PREFETCHES: 0
DTLB PREFETCHES SAME FILL-ORIGIN LEVEL: 0 DIFFERENT FILL-ORIGIN LEVEL: 0
DTLB AVERAGE MISS LATENCY: 11.0763 cycles
DTLB RQ	ACCESS:    5751684	FORWARD:          0	MERGED:     495222	TO_CACHE:    5256462

STLB TOTAL     ACCESS:    3138115  HIT:    3102268  MISS:      35847  HIT %:    98.8577  MISS %:    1.14231   MPKI: 1.43388
STLB LOAD TRANSLATION ACCESS:    2203905  HIT:    2171706  MISS:      32199  HIT %:     98.539  MISS %:      1.461   MPKI: 1.28796
STLB PREFETCH TRANSLATION ACCESS:     195535  HIT:     191887  MISS:       3648  HIT %:    98.1343  MISS %:    1.86565   MPKI: 0.14592
STLB TRANSLATION FROM L1D PREFETCHER ACCESS:     738675  HIT:     738675  MISS:          0  HIT %:        100  MISS %:          0   MPKI: 0
STLB PREFETCH  REQUESTED:     379016  ISSUED:     370774  USEFUL:        629  USELESS:       3045
STLB USEFUL LOAD PREFETCHES:        629 PREFETCH ISSUED TO LOWER LEVEL:     176536  ACCURACY: 0.356301
STLB TIMELY PREFETCHES:        629 LATE PREFETCHES: 21 DROPPED PREFETCHES: 172867
STLB PREFETCHES SAME FILL-ORIGIN LEVEL: 176536 DIFFERENT FILL-ORIGIN LEVEL: 0
STLB AVERAGE MISS LATENCY: 134.051 cycles
STLB RQ	ACCESS:    5818492	FORWARD:          0	MERGED:    2875912	TO_CACHE:    2942580
STLB PQ	ACCESS:     370774	FORWARD:          0	MERGED:       2055	TO_CACHE:     368719

STLB Hit, L1D data hit: 0
STLB Hit, L2C data hit: 0
STLB Hit, LLC data hit: 0
STLB Hit, LLC data miss: 0
STLB STLB hints to L2: 0
L1D TOTAL     ACCESS:    7631479  HIT:    3743315  MISS:    3888164  HIT %:     49.051  MISS %:     50.949   MPKI: 155.527
L1D LOAD      ACCESS:    5250936  HIT:    2213736  MISS:    3037200  HIT %:    42.1589  MISS %:    57.8411   MPKI: 121.488
L1D RFO       ACCESS:     424298  HIT:     416651  MISS:       7647  HIT %:    98.1977  MISS %:    1.80227   MPKI: 0.30588
L1D PREFETCH  ACCESS:    1956245  HIT:    1112928  MISS:     843317  HIT %:     56.891  MISS %:     43.109   MPKI: 33.7327
AGUS PREFETCH L1 MISS: 0
L1D PREFETCH  REQUESTED:    8009069  ISSUED:    8004936  USEFUL:     837404  USELESS:       5911
L1D USEFUL LOAD PREFETCHES:     837404 PREFETCH ISSUED TO LOWER LEVEL:    1206869  ACCURACY: 69.3865
L1D TIMELY PREFETCHES:     837404 LATE PREFETCHES: 363546 DROPPED PREFETCHES: 0
L1D PREFETCHES SAME FILL-ORIGIN LEVEL: 1206869 DIFFERENT FILL-ORIGIN LEVEL: 0
L1D AVERAGE MISS LATENCY: 114.605 cycles
L1D RQ	ACCESS:    8951628	FORWARD:          0	MERGED:    3578200	TO_CACHE:    5308564
L1D WQ	ACCESS:     459661	FORWARD:      64889	MERGED:      16541	TO_CACHE:     443120
L1D PQ	ACCESS:    4390349	FORWARD:          0	MERGED:     775737	TO_CACHE:    3614587

L1D UNIQUE REGIONS ACCESSED: 0
L1D REGIONS CONFLICTS: 0
L1D Cross Page Prefetch Requests: 0
L1D Same Page Prefetch Requests: 4390349
L1D ROI Sum of L1D PQ occupancy: 49769645
L1D PREFETCHES PUSHED FROM L2C: 0
L1I TOTAL     ACCESS:    4086344  HIT:    4086344  MISS:          0  HIT %:        100  MISS %:          0   MPKI: 0
L1I LOAD      ACCESS:    4086344  HIT:    4086344  MISS:          0  HIT %:        100  MISS %:          0   MPKI: 0
L1I PREFETCH  REQUESTED:          0  ISSUED:          0  USEFUL:          0  USELESS:          0
L1I USEFUL LOAD PREFETCHES:          0 PREFETCH ISSUED TO LOWER LEVEL:          0  ACCURACY: -nan
L1I TIMELY PREFETCHES:          0 LATE PREFETCHES: 0 DROPPED PREFETCHES: 0
L1I PREFETCHES SAME FILL-ORIGIN LEVEL: 0 DIFFERENT FILL-ORIGIN LEVEL: 0
L1I AVERAGE MISS LATENCY: -nan cycles
L1I RQ	ACCESS:    5483890	FORWARD:          0	MERGED:    1397547	TO_CACHE:    4086343

BTB TOTAL     ACCESS:    7381233  HIT:    7359090  MISS:      22143  HIT %:       99.7  MISS %:   0.299991   MPKI: 0.88572
BTB BRANCH_DIRECT_JUMP	ACCESS:     954613  HIT:     954578  MISS:         35
BTB BRANCH_INDIRECT	ACCESS:          0  HIT:          0  MISS:          0
BTB BRANCH_CONDITIONAL	ACCESS:    6254608  HIT:    6254529  MISS:         79
BTB BRANCH_DIRECT_CALL	ACCESS:      79755  HIT:      79739  MISS:         16
BTB BRANCH_INDIRECT_CALL	ACCESS:       6250  HIT:       6242  MISS:          8
BTB BRANCH_RETURN	ACCESS:      86007  HIT:      64002  MISS:      22005
BTB BRANCH_OTHER ACCESS:          0  HIT:          0  MISS:          0

L2C TOTAL     ACCESS:    4176948  HIT:     684984  MISS:    3491964  HIT %:    16.3992  MISS %:    83.6008   MPKI: 139.679
L2C LOAD      ACCESS:    2673650  HIT:     409680  MISS:    2263970  HIT %:    15.3229  MISS %:    84.6771   MPKI: 90.5588
L2C DATA LOAD MPKI: 90.5588
L2C INSTRUCTION LOAD MPKI: 0
L2C RFO       ACCESS:       7641  HIT:        771  MISS:       6870  HIT %:    10.0903  MISS %:    89.9097   MPKI: 0.2748
L2C PREFETCH  ACCESS:    1206869  HIT:        642  MISS:    1206227  HIT %:  0.0531955  MISS %:    99.9468   MPKI: 48.2491
AGUS PREFETCH L1 MISS: 0
L2C DATA PREFETCH MPKI: 48.2491
L2C INSTRUCTION PREFETCH MPKI: 0
L2C WRITEBACK ACCESS:      79754  HIT:      79754  MISS:          0  HIT %:        100  MISS %:          0   MPKI: 0
L2C LOAD TRANSLATION ACCESS:      32350  HIT:      24092  MISS:       8258  HIT %:     74.473  MISS %:     25.527   MPKI: 0.33032
L2C PREFETCH TRANSLATION ACCESS:     176684  HIT:     170045  MISS:       6639  HIT %:    96.2424  MISS %:    3.75756   MPKI: 0.26556
L2C PREFETCH  REQUESTED:          0  ISSUED:          0  USEFUL:       4865  USELESS:    1205330
L2C USEFUL LOAD PREFETCHES:       4865 PREFETCH ISSUED TO LOWER LEVEL:    1206227  ACCURACY: 0.403324
L2C TIMELY PREFETCHES:       4865 LATE PREFETCHES: 0 DROPPED PREFETCHES: 0
L2C PREFETCHES SAME FILL-ORIGIN LEVEL: 0 DIFFERENT FILL-ORIGIN LEVEL: 0
L2C AVERAGE MISS LATENCY: 110.922 cycles
L2C RQ	ACCESS:    2890329	FORWARD:          0	MERGED:          0	TO_CACHE:    2890325
L2C WQ	ACCESS:      79754	FORWARD:          4	MERGED:          0	TO_CACHE:      79754
L2C PQ	ACCESS:    1206869	FORWARD:          0	MERGED:          0	TO_CACHE:    1206869

L2C Instructions Evicting Data 0
L2C Translations Evicting Data 14850
L2C Data Evicting Data 3462206
L2C Instructions Evicting Instructions 0
L2C Translations Evicting Instructions 0
L2C Data Evicting Instructions 0
L2C Instructions Evicting Translations 0
L2C Translations Evicting Translations 47
L2C Data Evicting Translations 14861
L2C Dense regions hint from L2: 0
PSCL5 TOTAL     ACCESS:     208714  HIT:     208714  MISS:          0  HIT %:        100  MISS %:          0   MPKI: 0
PSCL5 LOAD TRANSLATION ACCESS:      32178  HIT:      32178  MISS:          0  HIT %:        100  MISS %:          0   MPKI: 0
PSCL5 PREFETCH TRANSLATION ACCESS:     176536  HIT:     176536  MISS:          0  HIT %:        100  MISS %:          0   MPKI: 0
PSCL5 PREFETCH  REQUESTED:          0  ISSUED:          0  USEFUL:          0  USELESS:          0
PSCL5 USEFUL LOAD PREFETCHES:          0 PREFETCH ISSUED TO LOWER LEVEL:          0  ACCURACY: -nan
PSCL5 TIMELY PREFETCHES:          0 LATE PREFETCHES: 0 DROPPED PREFETCHES: 0
PSCL5 PREFETCHES SAME FILL-ORIGIN LEVEL: 0 DIFFERENT FILL-ORIGIN LEVEL: 0

PSCL4 TOTAL     ACCESS:     208714  HIT:     208714  MISS:          0  HIT %:        100  MISS %:          0   MPKI: 0
PSCL4 LOAD TRANSLATION ACCESS:      32178  HIT:      32178  MISS:          0  HIT %:        100  MISS %:          0   MPKI: 0
PSCL4 PREFETCH TRANSLATION ACCESS:     176536  HIT:     176536  MISS:          0  HIT %:        100  MISS %:          0   MPKI: 0
PSCL4 PREFETCH  REQUESTED:          0  ISSUED:          0  USEFUL:          0  USELESS:          0
PSCL4 USEFUL LOAD PREFETCHES:          0 PREFETCH ISSUED TO LOWER LEVEL:          0  ACCURACY: -nan
PSCL4 TIMELY PREFETCHES:          0 LATE PREFETCHES: 0 DROPPED PREFETCHES: 0
PSCL4 PREFETCHES SAME FILL-ORIGIN LEVEL: 0 DIFFERENT FILL-ORIGIN LEVEL: 0

PSCL3 TOTAL     ACCESS:     208714  HIT:     208714  MISS:          0  HIT %:        100  MISS %:          0   MPKI: 0
PSCL3 LOAD TRANSLATION ACCESS:      32178  HIT:      32178  MISS:          0  HIT %:        100  MISS %:          0   MPKI: 0
PSCL3 PREFETCH TRANSLATION ACCESS:     176536  HIT:     176536  MISS:          0  HIT %:        100  MISS %:          0   MPKI: 0
PSCL3 PREFETCH  REQUESTED:          0  ISSUED:          0  USEFUL:          0  USELESS:          0
PSCL3 USEFUL LOAD PREFETCHES:          0 PREFETCH ISSUED TO LOWER LEVEL:          0  ACCURACY: -nan
PSCL3 TIMELY PREFETCHES:          0 LATE PREFETCHES: 0 DROPPED PREFETCHES: 0
PSCL3 PREFETCHES SAME FILL-ORIGIN LEVEL: 0 DIFFERENT FILL-ORIGIN LEVEL: 0

PSCL2 TOTAL     ACCESS:     206020  HIT:     205690  MISS:        330  HIT %:    99.8398  MISS %:   0.160179   MPKI: 0.0132
PSCL2 LOAD TRANSLATION ACCESS:      32200  HIT:      31870  MISS:        330  HIT %:    98.9752  MISS %:    1.02484   MPKI: 0.0132
PSCL2 PREFETCH TRANSLATION ACCESS:     173820  HIT:     173820  MISS:          0  HIT %:        100  MISS %:          0   MPKI: 0
PSCL2 PREFETCH  REQUESTED:          0  ISSUED:          0  USEFUL:          0  USELESS:          0
PSCL2 USEFUL LOAD PREFETCHES:          0 PREFETCH ISSUED TO LOWER LEVEL:          0  ACCURACY: -nan
PSCL2 TIMELY PREFETCHES:          0 LATE PREFETCHES: 0 DROPPED PREFETCHES: 0
PSCL2 PREFETCHES SAME FILL-ORIGIN LEVEL: 0 DIFFERENT FILL-ORIGIN LEVEL: 0

LLC TOTAL     ACCESS:    3567570  HIT:    1568083  MISS:    1999487  HIT %:    43.9538  MISS %:    56.0462   MPKI: 79.9795
LLC LOAD      ACCESS:    2263970  HIT:    1474759  MISS:     789211  HIT %:    65.1404  MISS %:    34.8596   MPKI: 31.5684
LLC RFO       ACCESS:       6870  HIT:       5784  MISS:       1086  HIT %:    84.1921  MISS %:    15.8079   MPKI: 0.04344
LLC PREFETCH  ACCESS:    1206227  HIT:       3598  MISS:    1202629  HIT %:   0.298285  MISS %:    99.7017   MPKI: 48.1052
AGUS PREFETCH L1 MISS: 0
LLC WRITEBACK ACCESS:      75606  HIT:      75490  MISS:        116  HIT %:    99.8466  MISS %:   0.153427   MPKI: 0.00464
LLC LOAD TRANSLATION ACCESS:       8258  HIT:       5591  MISS:       2667  HIT %:     67.704  MISS %:     32.296   MPKI: 0.10668
LLC PREFETCH TRANSLATION ACCESS:       6639  HIT:       2861  MISS:       3778  HIT %:    43.0938  MISS %:    56.9062   MPKI: 0.15112
LLC PREFETCH  REQUESTED:          0  ISSUED:          0  USEFUL:       1410  USELESS:    1188907
LLC USEFUL LOAD PREFETCHES:       1410 PREFETCH ISSUED TO LOWER LEVEL:    1202629  ACCURACY: 0.117243
LLC TIMELY PREFETCHES:       1410 LATE PREFETCHES: 0 DROPPED PREFETCHES: 0
LLC PREFETCHES SAME FILL-ORIGIN LEVEL: 0 DIFFERENT FILL-ORIGIN LEVEL: 0
LLC AVERAGE MISS LATENCY: 140.663 cycles
LLC RQ	ACCESS:    2285737	FORWARD:          0	MERGED:          0	TO_CACHE:    2285737
LLC WQ	ACCESS:      75606	FORWARD:          0	MERGED:          0	TO_CACHE:      75606
LLC PQ	ACCESS:    1206227	FORWARD:          0	MERGED:          0	TO_CACHE:    1206227

LLC Dense regions hint to LLC: 0

RAW hits: 62699
Loads Generated: 9014327
Loads sent to L1D: 8951628
Stores Generated: 459660
Stores sent to L1D: 459661
Major fault: 0 Minor fault: 44120
Allocated PAGES: 44120
CPU 0 L1D optimized prefetcher final stats
Degree: 5
Total loads11797782
CPU 0 STLB arbitrary stride prefetcher final stats
Degree: 8

DRAM Statistics
 CHANNEL 0
 RQ ROW_BUFFER_HIT:     921434  ROW_BUFFER_MISS:    1077918
 DBUS_CONGESTED:        275
 WQ ROW_BUFFER_HIT:      10084  ROW_BUFFER_MISS:      29685  FULL:          0

 AVG_CONGESTED_CYCLE: 4
 All warmup complete: 2
Channel 0 Bank busy for read cycles: 0
Channel 0 Bank busy for write cycles: 0
Channel 0
Rank 0
0banks busy for read cycles: 52019801
0banks busy for write cycles: 14820
1banks busy for read cycles: 36055157
1banks busy for write cycles: 2777635
2banks busy for read cycles: 19645544
2banks busy for write cycles: 576517
3banks busy for read cycles: 11818672
3banks busy for write cycles: 237972
4banks busy for read cycles: 8480924
4banks busy for write cycles: 139919
5banks busy for read cycles: 5190685
5banks busy for write cycles: 113898
6banks busy for read cycles: 2893274
6banks busy for write cycles: 101872
7banks busy for read cycles: 1448333
7banks busy for write cycles: 140020
8banks busy for read cycles: 1200933
8banks busy for write cycles: 214615

CPU 0 Branch Prediction Accuracy: 96.3142% MPKI: 11.2642 Average ROB Occupancy at Mispredict: 45.2805
Branch types
NOT_BRANCH: 17359361 69.4374%
BRANCH_DIRECT_JUMP: 954613 3.81845%
BRANCH_INDIRECT: 0 0%
BRANCH_CONDITIONAL: 6513665 26.0547%
BRANCH_DIRECT_CALL: 79755 0.31902%
BRANCH_INDIRECT_CALL: 6250 0.025%
BRANCH_RETURN: 86007 0.344028%
BRANCH_OTHER: 0 0%

DRAM PAGES: 1048576
Allocated PAGES: 44120
