
*** ChampSim Multicore Out-of-Order Simulator ***

Warmup Instructions: 25000000
Simulation Instructions: 25000000
Number of CPUs: 1
LLC sets: 2048
LLC ways: 16
Off-chip DRAM Size: 4096 MB Channels: 1 Width: 64-bit Data Rate: 6400 MT/s
CPU 0 runs given/traces/trace2.champsimtrace.xz
.xz
CPU 0 Bimodal branch predictor
BTB has LRU replacement policy
ITLB has LRU replacement policy
DTLB has LRU replacement policy
CPU 0 STLB arbitrary stride prefetcher
STLB has LRU replacement policy
L1I has LRU replacement policy
CPU 0 L1D Optimized prefetcher
L1D has LRU replacement policy
L2C has LRU replacement policy
LLC has LRU replacement policy
Heartbeat CPU 0 instructions: 10000002 cycles: 3798494 heartbeat IPC: 2.63262 cumulative IPC: 2.63262 (Simulation time: 0 hr 0 min 30 sec) 
Heartbeat CPU 0 instructions: 20000001 cycles: 7599371 heartbeat IPC: 2.63097 cumulative IPC: 2.6318 (Simulation time: 0 hr 1 min 0 sec) 

Warmup complete CPU 0 instructions: 25000001 cycles: 9498887 (Simulation time: 0 hr 1 min 15 sec) 

Useful: 3228 Total: 16910
IP stride accuracy after phase end: 19.0893
Useful: 26 Total: 4044
CPLX accuracy after phase end: 0.642928
Useful: 1738 Total: 6187
NL stride accuracy after phase end: 28.0912
Most accurate prefetcher: 2
Heartbeat CPU 0 instructions: 30000001 cycles: 23346436 heartbeat IPC: 0.635039 cumulative IPC: 0.361075 (Simulation time: 0 hr 1 min 44 sec) 
Heartbeat CPU 0 instructions: 40000002 cycles: 50235380 heartbeat IPC: 0.3719 cumulative IPC: 0.36822 (Simulation time: 0 hr 2 min 39 sec) 
Retire attempted: 68059295 Failed due to ip: 884350 Failed due to non completion: 0 Retired instructions: 47491728
Heartbeat CPU 0 instructions: 50000000 cycles: 76616669 heartbeat IPC: 0.379056 cumulative IPC: 0.37248 (Simulation time: 0 hr 3 min 35 sec) 
Finished CPU 0 instructions: 25000000 cycles: 67117804 cumulative IPC: 0.372479 (Simulation time: 0 hr 3 min 35 sec) 

ChampSim completed all CPUs

Region of Interest Statistics

CPU 0 cumulative IPC: 0.372479 instructions: 25000000 cycles: 67117804
ITLB TOTAL     ACCESS:    4556285  HIT:    4556285  MISS:          0  HIT %:        100  MISS %:          0   MPKI: 0
ITLB LOAD TRANSLATION ACCESS:    4556285  HIT:    4556285  MISS:          0  HIT %:        100  MISS %:          0   MPKI: 0
ITLB PREFETCH  REQUESTED:          0  ISSUED:          0  USEFUL:          0  USELESS:          0
ITLB USEFUL LOAD PREFETCHES:          0 PREFETCH ISSUED TO LOWER LEVEL:          0  ACCURACY: -nan
ITLB TIMELY PREFETCHES:          0 LATE PREFETCHES: 0 DROPPED PREFETCHES: 0
ITLB PREFETCHES SAME FILL-ORIGIN LEVEL: 0 DIFFERENT FILL-ORIGIN LEVEL: 0
ITLB AVERAGE MISS LATENCY: -nan cycles
ITLB RQ	ACCESS:    4641698	FORWARD:          0	MERGED:      85413	TO_CACHE:    4556285

DTLB TOTAL     ACCESS:    3872909  HIT:    3838894  MISS:      34015  HIT %:    99.1217  MISS %:    0.87828   MPKI: 1.3606
DTLB LOAD TRANSLATION ACCESS:    3872909  HIT:    3838894  MISS:      34015  HIT %:    99.1217  MISS %:    0.87828   MPKI: 1.3606
DTLB PREFETCH  REQUESTED:          0  ISSUED:          0  USEFUL:          0  USELESS:          0
DTLB USEFUL LOAD PREFETCHES:          0 PREFETCH ISSUED TO LOWER LEVEL:          0  ACCURACY: -nan
DTLB TIMELY PREFETCHES:          0 LATE PREFETCHES: 0 DROPPED PREFETCHES: 0
DTLB PREFETCHES SAME FILL-ORIGIN LEVEL: 0 DIFFERENT FILL-ORIGIN LEVEL: 0
DTLB AVERAGE MISS LATENCY: 85.9982 cycles
DTLB RQ	ACCESS:    4557551	FORWARD:          0	MERGED:     684560	TO_CACHE:    3872991

STLB TOTAL     ACCESS:    3092708  HIT:    3059997  MISS:      32711  HIT %:    98.9423  MISS %:    1.05768   MPKI: 1.30844
STLB LOAD TRANSLATION ACCESS:      34015  HIT:      11125  MISS:      22890  HIT %:    32.7062  MISS %:    67.2938   MPKI: 0.9156
STLB PREFETCH TRANSLATION ACCESS:      44062  HIT:      34249  MISS:       9813  HIT %:    77.7291  MISS %:    22.2709   MPKI: 0.39252
STLB TRANSLATION FROM L1D PREFETCHER ACCESS:    3014631  HIT:    3014623  MISS:          8  HIT %:    99.9997  MISS %: 0.000265372   MPKI: 0.00032
STLB PREFETCH  REQUESTED:     150632  ISSUED:     150630  USEFUL:       9771  USELESS:         25
STLB USEFUL LOAD PREFETCHES:       9771 PREFETCH ISSUED TO LOWER LEVEL:     115352  ACCURACY: 8.47059
STLB TIMELY PREFETCHES:       9771 LATE PREFETCHES: 0 DROPPED PREFETCHES: 105539
STLB PREFETCHES SAME FILL-ORIGIN LEVEL: 115352 DIFFERENT FILL-ORIGIN LEVEL: 0
STLB AVERAGE MISS LATENCY: 116.999 cycles
STLB RQ	ACCESS:   14569407	FORWARD:          0	MERGED:   11520761	TO_CACHE:    3048646
STLB PQ	ACCESS:     150630	FORWARD:          0	MERGED:       1029	TO_CACHE:     149601

STLB Hit, L1D data hit: 0
STLB Hit, L2C data hit: 0
STLB Hit, LLC data hit: 0
STLB Hit, LLC data miss: 0
STLB STLB hints to L2: 0
L1D TOTAL     ACCESS:   11318812  HIT:    9487442  MISS:    1831370  HIT %:    83.8201  MISS %:    16.1799   MPKI: 73.2548
L1D LOAD      ACCESS:    4204783  HIT:    3922881  MISS:     281902  HIT %:    93.2957  MISS %:    6.70432   MPKI: 11.2761
L1D RFO       ACCESS:     333324  HIT:     333311  MISS:         13  HIT %:    99.9961  MISS %: 0.00390011   MPKI: 0.00052
L1D PREFETCH  ACCESS:    6780705  HIT:    5231250  MISS:    1549455  HIT %:    77.1491  MISS %:    22.8509   MPKI: 61.9782
AGUS PREFETCH L1 MISS: 0
L1D PREFETCH  REQUESTED:   34687095  ISSUED:   34657973  USEFUL:    1472804  USELESS:      76559
L1D USEFUL LOAD PREFETCHES:    1472804 PREFETCH ISSUED TO LOWER LEVEL:    1786135  ACCURACY: 82.4576
L1D TIMELY PREFETCHES:    1472804 LATE PREFETCHES: 236680 DROPPED PREFETCHES: 0
L1D PREFETCHES SAME FILL-ORIGIN LEVEL: 1786135 DIFFERENT FILL-ORIGIN LEVEL: 0
L1D AVERAGE MISS LATENCY: 120.788 cycles
L1D RQ	ACCESS:    8972962	FORWARD:          0	MERGED:    4747182	TO_CACHE:    4224223
L1D WQ	ACCESS:     370377	FORWARD:       1557	MERGED:      37049	TO_CACHE:     333328
L1D PQ	ACCESS:   20122581	FORWARD:          0	MERGED:    5587189	TO_CACHE:   14535392

L1D UNIQUE REGIONS ACCESSED: 0
L1D REGIONS CONFLICTS: 0
L1D Cross Page Prefetch Requests: 0
L1D Same Page Prefetch Requests: 20122581
L1D ROI Sum of L1D PQ occupancy: 204164333
L1D PREFETCHES PUSHED FROM L2C: 0
L1I TOTAL     ACCESS:    4641697  HIT:    4641697  MISS:          0  HIT %:        100  MISS %:          0   MPKI: 0
L1I LOAD      ACCESS:    4641697  HIT:    4641697  MISS:          0  HIT %:        100  MISS %:          0   MPKI: 0
L1I PREFETCH  REQUESTED:          0  ISSUED:          0  USEFUL:          0  USELESS:          0
L1I USEFUL LOAD PREFETCHES:          0 PREFETCH ISSUED TO LOWER LEVEL:          0  ACCURACY: -nan
L1I TIMELY PREFETCHES:          0 LATE PREFETCHES: 0 DROPPED PREFETCHES: 0
L1I PREFETCHES SAME FILL-ORIGIN LEVEL: 0 DIFFERENT FILL-ORIGIN LEVEL: 0
L1I AVERAGE MISS LATENCY: -nan cycles
L1I RQ	ACCESS:    6966599	FORWARD:          0	MERGED:    2324901	TO_CACHE:    4641698

BTB TOTAL     ACCESS:    5953193  HIT:    5953095  MISS:         98  HIT %:    99.9984  MISS %: 0.00164618   MPKI: 0.00392
BTB BRANCH_DIRECT_JUMP	ACCESS:      85874  HIT:      85848  MISS:         26
BTB BRANCH_INDIRECT	ACCESS:          0  HIT:          0  MISS:          0
BTB BRANCH_CONDITIONAL	ACCESS:    5783213  HIT:    5783164  MISS:         49
BTB BRANCH_DIRECT_CALL	ACCESS:      42053  HIT:      42043  MISS:         10
BTB BRANCH_INDIRECT_CALL	ACCESS:          0  HIT:          0  MISS:          0
BTB BRANCH_RETURN	ACCESS:      42053  HIT:      42040  MISS:         13
BTB BRANCH_OTHER ACCESS:          0  HIT:          0  MISS:          0

L2C TOTAL     ACCESS:    1973317  HIT:     170962  MISS:    1802355  HIT %:    8.66369  MISS %:    91.3363   MPKI: 72.0942
L2C LOAD      ACCESS:      45222  HIT:       5735  MISS:      39487  HIT %:    12.6819  MISS %:    87.3181   MPKI: 1.57948
L2C DATA LOAD MPKI: 1.57948
L2C INSTRUCTION LOAD MPKI: 0
L2C RFO       ACCESS:         13  HIT:          0  MISS:         13  HIT %:          0  MISS %:        100   MPKI: 0.00052
L2C PREFETCH  ACCESS:    1786135  HIT:      32252  MISS:    1753883  HIT %:    1.80569  MISS %:    98.1943   MPKI: 70.1553
AGUS PREFETCH L1 MISS: 0
L2C DATA PREFETCH MPKI: 70.1553
L2C INSTRUCTION PREFETCH MPKI: 0
L2C WRITEBACK ACCESS:       2818  HIT:       2795  MISS:         23  HIT %:    99.1838  MISS %:   0.816182   MPKI: 0.00092
L2C LOAD TRANSLATION ACCESS:      23466  HIT:      18858  MISS:       4608  HIT %:    80.3631  MISS %:    19.6369   MPKI: 0.18432
L2C PREFETCH TRANSLATION ACCESS:     115650  HIT:     111321  MISS:       4329  HIT %:    96.2568  MISS %:    3.74319   MPKI: 0.17316
L2C TRANSLATION FROM L1D PREFETCHER ACCESS:         13  HIT:          1  MISS:         12  HIT %:    7.69231  MISS %:    92.3077   MPKI: 0.00048
L2C PREFETCH  REQUESTED:          0  ISSUED:          0  USEFUL:       5766  USELESS:    1744500
L2C USEFUL LOAD PREFETCHES:       5766 PREFETCH ISSUED TO LOWER LEVEL:    1753883  ACCURACY: 0.328756
L2C TIMELY PREFETCHES:       5766 LATE PREFETCHES: 0 DROPPED PREFETCHES: 0
L2C PREFETCHES SAME FILL-ORIGIN LEVEL: 0 DIFFERENT FILL-ORIGIN LEVEL: 0
L2C AVERAGE MISS LATENCY: 108.257 cycles
L2C RQ	ACCESS:     184363	FORWARD:          0	MERGED:          0	TO_CACHE:     184363
L2C WQ	ACCESS:       2818	FORWARD:          0	MERGED:          0	TO_CACHE:       2818
L2C PQ	ACCESS:    1786135	FORWARD:          0	MERGED:          0	TO_CACHE:    1786135

L2C Instructions Evicting Data 0
L2C Translations Evicting Data 8915
L2C Data Evicting Data 1784481
L2C Instructions Evicting Instructions 0
L2C Translations Evicting Instructions 0
L2C Data Evicting Instructions 0
L2C Instructions Evicting Translations 0
L2C Translations Evicting Translations 34
L2C Data Evicting Translations 8902
L2C Dense regions hint from L2: 0
PSCL5 TOTAL     ACCESS:     138250  HIT:     138250  MISS:          0  HIT %:        100  MISS %:          0   MPKI: 0
PSCL5 LOAD TRANSLATION ACCESS:      22890  HIT:      22890  MISS:          0  HIT %:        100  MISS %:          0   MPKI: 0
PSCL5 PREFETCH TRANSLATION ACCESS:     115352  HIT:     115352  MISS:          0  HIT %:        100  MISS %:          0   MPKI: 0
PSCL5 TRANSLATION FROM L1D PREFETCHER ACCESS:          8  HIT:          8  MISS:          0  HIT %:        100  MISS %:          0   MPKI: 0
PSCL5 PREFETCH  REQUESTED:          0  ISSUED:          0  USEFUL:          0  USELESS:          0
PSCL5 USEFUL LOAD PREFETCHES:          0 PREFETCH ISSUED TO LOWER LEVEL:          0  ACCURACY: -nan
PSCL5 TIMELY PREFETCHES:          0 LATE PREFETCHES: 0 DROPPED PREFETCHES: 0
PSCL5 PREFETCHES SAME FILL-ORIGIN LEVEL: 0 DIFFERENT FILL-ORIGIN LEVEL: 0

PSCL4 TOTAL     ACCESS:     138250  HIT:     138250  MISS:          0  HIT %:        100  MISS %:          0   MPKI: 0
PSCL4 LOAD TRANSLATION ACCESS:      22890  HIT:      22890  MISS:          0  HIT %:        100  MISS %:          0   MPKI: 0
PSCL4 PREFETCH TRANSLATION ACCESS:     115352  HIT:     115352  MISS:          0  HIT %:        100  MISS %:          0   MPKI: 0
PSCL4 TRANSLATION FROM L1D PREFETCHER ACCESS:          8  HIT:          8  MISS:          0  HIT %:        100  MISS %:          0   MPKI: 0
PSCL4 PREFETCH  REQUESTED:          0  ISSUED:          0  USEFUL:          0  USELESS:          0
PSCL4 USEFUL LOAD PREFETCHES:          0 PREFETCH ISSUED TO LOWER LEVEL:          0  ACCURACY: -nan
PSCL4 TIMELY PREFETCHES:          0 LATE PREFETCHES: 0 DROPPED PREFETCHES: 0
PSCL4 PREFETCHES SAME FILL-ORIGIN LEVEL: 0 DIFFERENT FILL-ORIGIN LEVEL: 0

PSCL3 TOTAL     ACCESS:     137347  HIT:     137344  MISS:          3  HIT %:    99.9978  MISS %: 0.00218425   MPKI: 0.00012
PSCL3 LOAD TRANSLATION ACCESS:      22716  HIT:      22713  MISS:          3  HIT %:    99.9868  MISS %:  0.0132066   MPKI: 0.00012
PSCL3 PREFETCH TRANSLATION ACCESS:     114624  HIT:     114624  MISS:          0  HIT %:        100  MISS %:          0   MPKI: 0
PSCL3 TRANSLATION FROM L1D PREFETCHER ACCESS:          7  HIT:          7  MISS:          0  HIT %:        100  MISS %:          0   MPKI: 0
PSCL3 PREFETCH  REQUESTED:          0  ISSUED:          0  USEFUL:          0  USELESS:          0
PSCL3 USEFUL LOAD PREFETCHES:          0 PREFETCH ISSUED TO LOWER LEVEL:          0  ACCURACY: -nan
PSCL3 TIMELY PREFETCHES:          0 LATE PREFETCHES: 0 DROPPED PREFETCHES: 0
PSCL3 PREFETCHES SAME FILL-ORIGIN LEVEL: 0 DIFFERENT FILL-ORIGIN LEVEL: 0

PSCL2 TOTAL     ACCESS:     137304  HIT:     136591  MISS:        713  HIT %:    99.4807  MISS %:   0.519286   MPKI: 0.02852
PSCL2 LOAD TRANSLATION ACCESS:      22931  HIT:      22218  MISS:        713  HIT %:    96.8907  MISS %:    3.10933   MPKI: 0.02852
PSCL2 PREFETCH TRANSLATION ACCESS:     114369  HIT:     114369  MISS:          0  HIT %:        100  MISS %:          0   MPKI: 0
PSCL2 TRANSLATION FROM L1D PREFETCHER ACCESS:          4  HIT:          4  MISS:          0  HIT %:        100  MISS %:          0   MPKI: 0
PSCL2 PREFETCH  REQUESTED:          0  ISSUED:          0  USEFUL:          0  USELESS:          0
PSCL2 USEFUL LOAD PREFETCHES:          0 PREFETCH ISSUED TO LOWER LEVEL:          0  ACCURACY: -nan
PSCL2 TIMELY PREFETCHES:          0 LATE PREFETCHES: 0 DROPPED PREFETCHES: 0
PSCL2 PREFETCHES SAME FILL-ORIGIN LEVEL: 0 DIFFERENT FILL-ORIGIN LEVEL: 0

LLC TOTAL     ACCESS:    1805107  HIT:       5644  MISS:    1799463  HIT %:   0.312668  MISS %:    99.6873   MPKI: 71.9785
LLC LOAD      ACCESS:      39487  HIT:        534  MISS:      38953  HIT %:    1.35234  MISS %:    98.6477   MPKI: 1.55812
LLC RFO       ACCESS:         13  HIT:          0  MISS:         13  HIT %:          0  MISS %:        100   MPKI: 0.00052
LLC PREFETCH  ACCESS:    1753883  HIT:       1956  MISS:    1751927  HIT %:   0.111524  MISS %:    99.8885   MPKI: 70.0771
AGUS PREFETCH L1 MISS: 0
LLC WRITEBACK ACCESS:       2775  HIT:       2765  MISS:         10  HIT %:    99.6396  MISS %:    0.36036   MPKI: 0.0004
LLC LOAD TRANSLATION ACCESS:       4608  HIT:        268  MISS:       4340  HIT %:    5.81597  MISS %:     94.184   MPKI: 0.1736
LLC PREFETCH TRANSLATION ACCESS:       4329  HIT:        121  MISS:       4208  HIT %:     2.7951  MISS %:    97.2049   MPKI: 0.16832
LLC TRANSLATION FROM L1D PREFETCHER ACCESS:         12  HIT:          0  MISS:         12  HIT %:          0  MISS %:        100   MPKI: 0.00048
LLC PREFETCH  REQUESTED:          0  ISSUED:          0  USEFUL:        127  USELESS:    1724231
LLC USEFUL LOAD PREFETCHES:        127 PREFETCH ISSUED TO LOWER LEVEL:    1751927  ACCURACY: 0.00724916
LLC TIMELY PREFETCHES:        127 LATE PREFETCHES: 0 DROPPED PREFETCHES: 0
LLC PREFETCHES SAME FILL-ORIGIN LEVEL: 0 DIFFERENT FILL-ORIGIN LEVEL: 0
LLC AVERAGE MISS LATENCY: 78.2806 cycles
LLC RQ	ACCESS:      48448	FORWARD:          0	MERGED:          0	TO_CACHE:      48448
LLC WQ	ACCESS:       2775	FORWARD:          0	MERGED:          0	TO_CACHE:       2775
LLC PQ	ACCESS:    1753883	FORWARD:          0	MERGED:          0	TO_CACHE:    1753883

LLC Dense regions hint to LLC: 0

RAW hits: 3999
Loads Generated: 8976961
Loads sent to L1D: 8972962
Stores Generated: 370377
Stores sent to L1D: 370377
Major fault: 0 Minor fault: 48857
Allocated PAGES: 48857
CPU 0 L1D optimized prefetcher final stats
Degree: 5
Total loads10824009
CPU 0 STLB arbitrary stride prefetcher final stats
Degree: 8

DRAM Statistics
 CHANNEL 0
 RQ ROW_BUFFER_HIT:    1669765  ROW_BUFFER_MISS:     129687
 DBUS_CONGESTED:        370
 WQ ROW_BUFFER_HIT:        342  ROW_BUFFER_MISS:       2430  FULL:          0

 AVG_CONGESTED_CYCLE: 4
 All warmup complete: 2
Channel 0 Bank busy for read cycles: 0
Channel 0 Bank busy for write cycles: 0
Channel 0
Rank 0
0banks busy for read cycles: 16223166
0banks busy for write cycles: 1269
1banks busy for read cycles: 13903750
1banks busy for write cycles: 306527
2banks busy for read cycles: 27807008
2banks busy for write cycles: 166037
3banks busy for read cycles: 5219739
3banks busy for write cycles: 62431
4banks busy for read cycles: 966388
4banks busy for write cycles: 31113
5banks busy for read cycles: 694436
5banks busy for write cycles: 15359
6banks busy for read cycles: 1540448
6banks busy for write cycles: 9922
7banks busy for read cycles: 142506
7banks busy for write cycles: 3068
8banks busy for read cycles: 23751
8banks busy for write cycles: 887

CPU 0 Branch Prediction Accuracy: 99.1323% MPKI: 3.09396 Average ROB Occupancy at Mispredict: 107.553
Branch types
NOT_BRANCH: 16085561 64.3422%
BRANCH_DIRECT_JUMP: 85874 0.343496%
BRANCH_INDIRECT: 0 0%
BRANCH_CONDITIONAL: 8744101 34.9764%
BRANCH_DIRECT_CALL: 42053 0.168212%
BRANCH_INDIRECT_CALL: 0 0%
BRANCH_RETURN: 42053 0.168212%
BRANCH_OTHER: 0 0%

DRAM PAGES: 1048576
Allocated PAGES: 48857
