
*** ChampSim Multicore Out-of-Order Simulator ***

Warmup Instructions: 25000000
Simulation Instructions: 25000000
Number of CPUs: 1
LLC sets: 2048
LLC ways: 16
Off-chip DRAM Size: 4096 MB Channels: 1 Width: 64-bit Data Rate: 6400 MT/s
CPU 0 runs given/traces/trace1.champsimtrace.xz
.xz
CPU 0 Bimodal branch predictor
BTB has LRU replacement policy
ITLB has LRU replacement policy
DTLB has LRU replacement policy
CPU 0 STLB arbitrary stride prefetcher
STLB has LRU replacement policy
L1I has LRU replacement policy
L1D has LRU replacement policy
L2C has LRU replacement policy
LLC has LRU replacement policy
Heartbeat CPU 0 instructions: 10000003 cycles: 2822562 heartbeat IPC: 3.54288 cumulative IPC: 3.54288 (Simulation time: 0 hr 0 min 15 sec) 
Heartbeat CPU 0 instructions: 20000003 cycles: 5635218 heartbeat IPC: 3.55536 cumulative IPC: 3.54911 (Simulation time: 0 hr 0 min 30 sec) 

Warmup complete CPU 0 instructions: 25000004 cycles: 7046654 (Simulation time: 0 hr 0 min 37 sec) 

Heartbeat CPU 0 instructions: 30000002 cycles: 23976284 heartbeat IPC: 0.545225 cumulative IPC: 0.29534 (Simulation time: 0 hr 0 min 54 sec) 
Heartbeat CPU 0 instructions: 40000001 cycles: 60259159 heartbeat IPC: 0.275612 cumulative IPC: 0.281889 (Simulation time: 0 hr 1 min 24 sec) 
Heartbeat CPU 0 instructions: 50000000 cycles: 95362641 heartbeat IPC: 0.284872 cumulative IPC: 0.283074 (Simulation time: 0 hr 1 min 54 sec) 
Finished CPU 0 instructions: 25000000 cycles: 88315988 cumulative IPC: 0.283074 (Simulation time: 0 hr 1 min 54 sec) 

ChampSim completed all CPUs

Region of Interest Statistics

CPU 0 cumulative IPC: 0.283074 instructions: 25000000 cycles: 88315988
ITLB TOTAL     ACCESS:    4439354  HIT:    4439354  MISS:          0  HIT %:        100  MISS %:          0   MPKI: 0
ITLB LOAD TRANSLATION ACCESS:    4439354  HIT:    4439354  MISS:          0  HIT %:        100  MISS %:          0   MPKI: 0
ITLB PREFETCH  REQUESTED:          0  ISSUED:          0  USEFUL:          0  USELESS:          0
ITLB USEFUL LOAD PREFETCHES:          0 PREFETCH ISSUED TO LOWER LEVEL:          0  ACCURACY: -nan
ITLB TIMELY PREFETCHES:          0 LATE PREFETCHES: 0 DROPPED PREFETCHES: 0
ITLB PREFETCHES SAME FILL-ORIGIN LEVEL: 0 DIFFERENT FILL-ORIGIN LEVEL: 0
ITLB AVERAGE MISS LATENCY: -nan cycles
ITLB RQ	ACCESS:    4792517	FORWARD:          0	MERGED:     353164	TO_CACHE:    4439353

DTLB TOTAL     ACCESS:    3716539  HIT:    3053634  MISS:     662905  HIT %:    82.1634  MISS %:    17.8366   MPKI: 26.5162
DTLB LOAD TRANSLATION ACCESS:    3716539  HIT:    3053634  MISS:     662905  HIT %:    82.1634  MISS %:    17.8366   MPKI: 26.5162
DTLB PREFETCH  REQUESTED:          0  ISSUED:          0  USEFUL:          0  USELESS:          0
DTLB USEFUL LOAD PREFETCHES:          0 PREFETCH ISSUED TO LOWER LEVEL:          0  ACCURACY: -nan
DTLB TIMELY PREFETCHES:          0 LATE PREFETCHES: 0 DROPPED PREFETCHES: 0
DTLB PREFETCHES SAME FILL-ORIGIN LEVEL: 0 DIFFERENT FILL-ORIGIN LEVEL: 0
DTLB AVERAGE MISS LATENCY: 53.2917 cycles
DTLB RQ	ACCESS:    4316002	FORWARD:          0	MERGED:     591578	TO_CACHE:    3724424

STLB TOTAL     ACCESS:     831286  HIT:     201246  MISS:     630040  HIT %:     24.209  MISS %:     75.791   MPKI: 25.2016
STLB LOAD TRANSLATION ACCESS:     662905  HIT:     105700  MISS:     557205  HIT %:     15.945  MISS %:     84.055   MPKI: 22.2882
STLB PREFETCH TRANSLATION ACCESS:     168381  HIT:      95546  MISS:      72835  HIT %:    56.7439  MISS %:    43.2561   MPKI: 2.9134
STLB PREFETCH  REQUESTED:     177384  ISSUED:     177384  USEFUL:       5170  USELESS:      68047
STLB USEFUL LOAD PREFETCHES:       5170 PREFETCH ISSUED TO LOWER LEVEL:      78070  ACCURACY: 6.62226
STLB TIMELY PREFETCHES:       5170 LATE PREFETCHES: 1134 DROPPED PREFETCHES: 4101
STLB PREFETCHES SAME FILL-ORIGIN LEVEL: 78070 DIFFERENT FILL-ORIGIN LEVEL: 0
STLB AVERAGE MISS LATENCY: 57.5482 cycles
STLB RQ	ACCESS:     662906	FORWARD:          0	MERGED:          0	TO_CACHE:     662906
STLB PQ	ACCESS:     177384	FORWARD:          0	MERGED:       1307	TO_CACHE:     176077

STLB Hit, L1D data hit: 0
STLB Hit, L2C data hit: 0
STLB Hit, LLC data hit: 0
STLB Hit, LLC data miss: 0
STLB STLB hints to L2: 0
L1D TOTAL     ACCESS:    4296196  HIT:    3090934  MISS:    1205262  HIT %:    71.9458  MISS %:    28.0542   MPKI: 48.2105
L1D LOAD      ACCESS:    3187532  HIT:    2051634  MISS:    1135898  HIT %:    64.3643  MISS %:    35.6357   MPKI: 45.4359
L1D RFO       ACCESS:    1108664  HIT:    1039300  MISS:      69364  HIT %:    93.7435  MISS %:    6.25654   MPKI: 2.77456
L1D PREFETCH  REQUESTED:          0  ISSUED:          0  USEFUL:          0  USELESS:          0
L1D USEFUL LOAD PREFETCHES:          0 PREFETCH ISSUED TO LOWER LEVEL:          0  ACCURACY: -nan
L1D TIMELY PREFETCHES:          0 LATE PREFETCHES: 0 DROPPED PREFETCHES: 0
L1D PREFETCHES SAME FILL-ORIGIN LEVEL: 0 DIFFERENT FILL-ORIGIN LEVEL: 0
L1D AVERAGE MISS LATENCY: 124.688 cycles
L1D RQ	ACCESS:    6161880	FORWARD:          0	MERGED:    2889672	TO_CACHE:    3207336
L1D WQ	ACCESS:    1108674	FORWARD:      64872	MERGED:          8	TO_CACHE:    1108666

L1D UNIQUE REGIONS ACCESSED: 0
L1D REGIONS CONFLICTS: 0
L1D Cross Page Prefetch Requests: 0
L1D Same Page Prefetch Requests: 0
L1D ROI Sum of L1D PQ occupancy: 0
L1D PREFETCHES PUSHED FROM L2C: 0
L1I TOTAL     ACCESS:    4792518  HIT:    4792518  MISS:          0  HIT %:        100  MISS %:          0   MPKI: 0
L1I LOAD      ACCESS:    4792518  HIT:    4792518  MISS:          0  HIT %:        100  MISS %:          0   MPKI: 0
L1I PREFETCH  REQUESTED:          0  ISSUED:          0  USEFUL:          0  USELESS:          0
L1I USEFUL LOAD PREFETCHES:          0 PREFETCH ISSUED TO LOWER LEVEL:          0  ACCURACY: -nan
L1I TIMELY PREFETCHES:          0 LATE PREFETCHES: 0 DROPPED PREFETCHES: 0
L1I PREFETCHES SAME FILL-ORIGIN LEVEL: 0 DIFFERENT FILL-ORIGIN LEVEL: 0
L1I AVERAGE MISS LATENCY: -nan cycles
L1I RQ	ACCESS:    7101185	FORWARD:          0	MERGED:    2308668	TO_CACHE:    4792517

BTB TOTAL     ACCESS:    3283960  HIT:    3283952  MISS:          8  HIT %:    99.9998  MISS %: 0.000243608   MPKI: 0.00032
BTB BRANCH_DIRECT_JUMP	ACCESS:     568310  HIT:     568308  MISS:          2
BTB BRANCH_INDIRECT	ACCESS:          0  HIT:          0  MISS:          0
BTB BRANCH_CONDITIONAL	ACCESS:    1606983  HIT:    1606979  MISS:          4
BTB BRANCH_DIRECT_CALL	ACCESS:     554334  HIT:     554333  MISS:          1
BTB BRANCH_INDIRECT_CALL	ACCESS:          0  HIT:          0  MISS:          0
BTB BRANCH_RETURN	ACCESS:     554333  HIT:     554332  MISS:          1
BTB BRANCH_OTHER ACCESS:          0  HIT:          0  MISS:          0

L2C TOTAL     ACCESS:    2473783  HIT:    1474624  MISS:     999159  HIT %:    59.6101  MISS %:    40.3899   MPKI: 39.9664
L2C LOAD      ACCESS:    1135897  HIT:     416539  MISS:     719358  HIT %:    36.6705  MISS %:    63.3295   MPKI: 28.7743
L2C DATA LOAD MPKI: 28.7743
L2C INSTRUCTION LOAD MPKI: 0
L2C RFO       ACCESS:      69364  HIT:      41798  MISS:      27566  HIT %:    60.2589  MISS %:    39.7411   MPKI: 1.10264
L2C WRITEBACK ACCESS:     554350  HIT:     554350  MISS:          0  HIT %:        100  MISS %:          0   MPKI: 0
L2C LOAD TRANSLATION ACCESS:     625744  HIT:     395711  MISS:     230033  HIT %:    63.2385  MISS %:    36.7615   MPKI: 9.20132
L2C PREFETCH TRANSLATION ACCESS:      88428  HIT:      66226  MISS:      22202  HIT %:    74.8926  MISS %:    25.1074   MPKI: 0.88808
L2C PREFETCH  REQUESTED:          0  ISSUED:          0  USEFUL:      15850  USELESS:       6491
L2C USEFUL LOAD PREFETCHES:      15850 PREFETCH ISSUED TO LOWER LEVEL:          0  ACCURACY: inf
L2C TIMELY PREFETCHES:      15850 LATE PREFETCHES: 0 DROPPED PREFETCHES: 0
L2C PREFETCHES SAME FILL-ORIGIN LEVEL: 0 DIFFERENT FILL-ORIGIN LEVEL: 0
L2C AVERAGE MISS LATENCY: 141.328 cycles
L2C RQ	ACCESS:    1919435	FORWARD:          0	MERGED:          0	TO_CACHE:    1919435
L2C WQ	ACCESS:     554350	FORWARD:          0	MERGED:          0	TO_CACHE:     554350

L2C Instructions Evicting Data 0
L2C Translations Evicting Data 150443
L2C Data Evicting Data 596303
L2C Instructions Evicting Instructions 0
L2C Translations Evicting Instructions 0
L2C Data Evicting Instructions 0
L2C Instructions Evicting Translations 0
L2C Translations Evicting Translations 101792
L2C Data Evicting Translations 150621
L2C Dense regions hint from L2: 0
PSCL5 TOTAL     ACCESS:     634141  HIT:     634141  MISS:          0  HIT %:        100  MISS %:          0   MPKI: 0
PSCL5 LOAD TRANSLATION ACCESS:     556071  HIT:     556071  MISS:          0  HIT %:        100  MISS %:          0   MPKI: 0
PSCL5 PREFETCH TRANSLATION ACCESS:      78070  HIT:      78070  MISS:          0  HIT %:        100  MISS %:          0   MPKI: 0
PSCL5 PREFETCH  REQUESTED:          0  ISSUED:          0  USEFUL:          0  USELESS:          0
PSCL5 USEFUL LOAD PREFETCHES:          0 PREFETCH ISSUED TO LOWER LEVEL:          0  ACCURACY: -nan
PSCL5 TIMELY PREFETCHES:          0 LATE PREFETCHES: 0 DROPPED PREFETCHES: 0
PSCL5 PREFETCHES SAME FILL-ORIGIN LEVEL: 0 DIFFERENT FILL-ORIGIN LEVEL: 0

PSCL4 TOTAL     ACCESS:     634141  HIT:     634141  MISS:          0  HIT %:        100  MISS %:          0   MPKI: 0
PSCL4 LOAD TRANSLATION ACCESS:     556071  HIT:     556071  MISS:          0  HIT %:        100  MISS %:          0   MPKI: 0
PSCL4 PREFETCH TRANSLATION ACCESS:      78070  HIT:      78070  MISS:          0  HIT %:        100  MISS %:          0   MPKI: 0
PSCL4 PREFETCH  REQUESTED:          0  ISSUED:          0  USEFUL:          0  USELESS:          0
PSCL4 USEFUL LOAD PREFETCHES:          0 PREFETCH ISSUED TO LOWER LEVEL:          0  ACCURACY: -nan
PSCL4 TIMELY PREFETCHES:          0 LATE PREFETCHES: 0 DROPPED PREFETCHES: 0
PSCL4 PREFETCHES SAME FILL-ORIGIN LEVEL: 0 DIFFERENT FILL-ORIGIN LEVEL: 0

PSCL3 TOTAL     ACCESS:     634141  HIT:     634141  MISS:          0  HIT %:        100  MISS %:          0   MPKI: 0
PSCL3 LOAD TRANSLATION ACCESS:     556071  HIT:     556071  MISS:          0  HIT %:        100  MISS %:          0   MPKI: 0
PSCL3 PREFETCH TRANSLATION ACCESS:      78070  HIT:      78070  MISS:          0  HIT %:        100  MISS %:          0   MPKI: 0
PSCL3 PREFETCH  REQUESTED:          0  ISSUED:          0  USEFUL:          0  USELESS:          0
PSCL3 USEFUL LOAD PREFETCHES:          0 PREFETCH ISSUED TO LOWER LEVEL:          0  ACCURACY: -nan
PSCL3 TIMELY PREFETCHES:          0 LATE PREFETCHES: 0 DROPPED PREFETCHES: 0
PSCL3 PREFETCHES SAME FILL-ORIGIN LEVEL: 0 DIFFERENT FILL-ORIGIN LEVEL: 0

PSCL2 TOTAL     ACCESS:     630875  HIT:     553520  MISS:      77355  HIT %:    87.7385  MISS %:    12.2615   MPKI: 3.0942
PSCL2 LOAD TRANSLATION ACCESS:     563753  HIT:     486398  MISS:      77355  HIT %:    86.2786  MISS %:    13.7214   MPKI: 3.0942
PSCL2 PREFETCH TRANSLATION ACCESS:      67122  HIT:      67122  MISS:          0  HIT %:        100  MISS %:          0   MPKI: 0
PSCL2 PREFETCH  REQUESTED:          0  ISSUED:          0  USEFUL:          0  USELESS:          0
PSCL2 USEFUL LOAD PREFETCHES:          0 PREFETCH ISSUED TO LOWER LEVEL:          0  ACCURACY: -nan
PSCL2 TIMELY PREFETCHES:          0 LATE PREFETCHES: 0 DROPPED PREFETCHES: 0
PSCL2 PREFETCHES SAME FILL-ORIGIN LEVEL: 0 DIFFERENT FILL-ORIGIN LEVEL: 0

LLC TOTAL     ACCESS:    1553847  HIT:     902343  MISS:     651504  HIT %:    58.0715  MISS %:    41.9285   MPKI: 26.0602
LLC LOAD      ACCESS:     719358  HIT:      77882  MISS:     641476  HIT %:    10.8266  MISS %:    89.1734   MPKI: 25.659
LLC RFO       ACCESS:      27566  HIT:      27562  MISS:          4  HIT %:    99.9855  MISS %:  0.0145106   MPKI: 0.00016
LLC WRITEBACK ACCESS:     554688  HIT:     554688  MISS:          0  HIT %:        100  MISS %:          0   MPKI: 0
LLC LOAD TRANSLATION ACCESS:     230033  HIT:     222422  MISS:       7611  HIT %:    96.6913  MISS %:    3.30866   MPKI: 0.30444
LLC PREFETCH TRANSLATION ACCESS:      22202  HIT:      19789  MISS:       2413  HIT %:    89.1316  MISS %:    10.8684   MPKI: 0.09652
LLC PREFETCH  REQUESTED:          0  ISSUED:          0  USEFUL:       1668  USELESS:        828
LLC USEFUL LOAD PREFETCHES:       1668 PREFETCH ISSUED TO LOWER LEVEL:          0  ACCURACY: inf
LLC TIMELY PREFETCHES:       1668 LATE PREFETCHES: 0 DROPPED PREFETCHES: 0
LLC PREFETCHES SAME FILL-ORIGIN LEVEL: 0 DIFFERENT FILL-ORIGIN LEVEL: 0
LLC AVERAGE MISS LATENCY: 170.546 cycles
LLC RQ	ACCESS:     999160	FORWARD:          0	MERGED:          0	TO_CACHE:     999160
LLC WQ	ACCESS:     554687	FORWARD:          0	MERGED:          0	TO_CACHE:     554687

LLC Dense regions hint to LLC: 0

RAW hits: 488650
Loads Generated: 6650534
Loads sent to L1D: 6161880
Stores Generated: 1108672
Stores sent to L1D: 1108674
Major fault: 0 Minor fault: 23115
Allocated PAGES: 23115
CPU 0 STLB arbitrary stride prefetcher final stats
Degree: 2

DRAM Statistics
 CHANNEL 0
 RQ ROW_BUFFER_HIT:        769  ROW_BUFFER_MISS:     650735
 DBUS_CONGESTED:          5
 WQ ROW_BUFFER_HIT:     205204  ROW_BUFFER_MISS:     349123  FULL:          0

 AVG_CONGESTED_CYCLE: 5
 All warmup complete: 2
Channel 0 Bank busy for read cycles: 0
Channel 0 Bank busy for write cycles: 0
Channel 0
Rank 0
0banks busy for read cycles: 2754188
0banks busy for write cycles: 62716
1banks busy for read cycles: 20729140
1banks busy for write cycles: 4873483
2banks busy for read cycles: 14338947
2banks busy for write cycles: 6973542
3banks busy for read cycles: 11247844
3banks busy for write cycles: 10077765
4banks busy for read cycles: 3578409
4banks busy for write cycles: 8249359
5banks busy for read cycles: 36834
5banks busy for write cycles: 3105240
6banks busy for read cycles: 102
6banks busy for write cycles: 1209425
7banks busy for read cycles: 0
7banks busy for write cycles: 589601
8banks busy for read cycles: 0
8banks busy for write cycles: 489394

CPU 0 Branch Prediction Accuracy: 99.9685% MPKI: 0.04912 Average ROB Occupancy at Mispredict: 155.896
Branch types
NOT_BRANCH: 21105622 84.4225%
BRANCH_DIRECT_JUMP: 568310 2.27324%
BRANCH_INDIRECT: 0 0%
BRANCH_CONDITIONAL: 2217333 8.86933%
BRANCH_DIRECT_CALL: 554334 2.21734%
BRANCH_INDIRECT_CALL: 0 0%
BRANCH_RETURN: 554333 2.21733%
BRANCH_OTHER: 0 0%

DRAM PAGES: 1048576
Allocated PAGES: 23115
