
*** ChampSim Multicore Out-of-Order Simulator ***

Warmup Instructions: 25000000
Simulation Instructions: 25000000
Number of CPUs: 1
LLC sets: 2048
LLC ways: 16
Off-chip DRAM Size: 4096 MB Channels: 1 Width: 64-bit Data Rate: 6400 MT/s
CPU 0 runs ../given/traces/trace1.champsimtrace.xz
.xz
CPU 0 Bimodal branch predictor
BTB has LRU replacement policy
ITLB has LRU replacement policy
DTLB has LRU replacement policy
CPU 0 STLB arbitrary stride prefetcher
STLB has LRU replacement policy
L1I has LRU replacement policy
L1D has LRU replacement policy
L2C has LRU replacement policy
LLC has LRU replacement policy
Heartbeat CPU 0 instructions: 10000003 cycles: 2826822 heartbeat IPC: 3.53754 cumulative IPC: 3.53754 (Simulation time: 0 hr 0 min 53 sec) 
Heartbeat CPU 0 instructions: 20000003 cycles: 5639147 heartbeat IPC: 3.55578 cumulative IPC: 3.54664 (Simulation time: 0 hr 1 min 44 sec) 

Warmup complete CPU 0 instructions: 25000004 cycles: 7051008 (Simulation time: 0 hr 2 min 9 sec) 

Heartbeat CPU 0 instructions: 30000002 cycles: 23059749 heartbeat IPC: 0.574033 cumulative IPC: 0.312329 (Simulation time: 0 hr 3 min 5 sec) 
Heartbeat CPU 0 instructions: 40000001 cycles: 57080662 heartbeat IPC: 0.293937 cumulative IPC: 0.299822 (Simulation time: 0 hr 5 min 0 sec) 
Heartbeat CPU 0 instructions: 50000003 cycles: 89842405 heartbeat IPC: 0.305234 cumulative IPC: 0.301964 (Simulation time: 0 hr 6 min 53 sec) 
Finished CPU 0 instructions: 25000003 cycles: 82791398 cumulative IPC: 0.301964 (Simulation time: 0 hr 6 min 53 sec) 

ChampSim completed all CPUs

Region of Interest Statistics

CPU 0 cumulative IPC: 0.301964 instructions: 25000003 cycles: 82791398
ITLB TOTAL     ACCESS:    4410985  HIT:    4410985  MISS:          0  HIT %:        100  MISS %:          0   MPKI: 0
ITLB LOAD TRANSLATION ACCESS:    4410985  HIT:    4410985  MISS:          0  HIT %:        100  MISS %:          0   MPKI: 0
ITLB PREFETCH  REQUESTED:          0  ISSUED:          0  USEFUL:          0  USELESS:          0
ITLB USEFUL LOAD PREFETCHES:          0 PREFETCH ISSUED TO LOWER LEVEL:          0  ACCURACY: -nan
ITLB TIMELY PREFETCHES:          0 LATE PREFETCHES: 0 DROPPED PREFETCHES: 0
ITLB PREFETCHES SAME FILL-ORIGIN LEVEL: 0 DIFFERENT FILL-ORIGIN LEVEL: 0
ITLB AVERAGE MISS LATENCY: -nan cycles
ITLB RQ	ACCESS:    4769600	FORWARD:          0	MERGED:     358616	TO_CACHE:    4410984

DTLB TOTAL     ACCESS:    3695745  HIT:    3032768  MISS:     662977  HIT %:    82.0611  MISS %:    17.9389   MPKI: 26.5191
DTLB LOAD TRANSLATION ACCESS:    3695745  HIT:    3032768  MISS:     662977  HIT %:    82.0611  MISS %:    17.9389   MPKI: 26.5191
DTLB PREFETCH  REQUESTED:          0  ISSUED:          0  USEFUL:          0  USELESS:          0
DTLB USEFUL LOAD PREFETCHES:          0 PREFETCH ISSUED TO LOWER LEVEL:          0  ACCURACY: -nan
DTLB TIMELY PREFETCHES:          0 LATE PREFETCHES: 0 DROPPED PREFETCHES: 0
DTLB PREFETCHES SAME FILL-ORIGIN LEVEL: 0 DIFFERENT FILL-ORIGIN LEVEL: 0
DTLB AVERAGE MISS LATENCY: 40.5714 cycles
DTLB RQ	ACCESS:    4296412	FORWARD:          0	MERGED:     590453	TO_CACHE:    3705959

STLB TOTAL     ACCESS:    1868615  HIT:     568789  MISS:    1299826  HIT %:    30.4391  MISS %:    69.5609   MPKI: 51.993
STLB LOAD TRANSLATION ACCESS:     662977  HIT:     120814  MISS:     542163  HIT %:     18.223  MISS %:     81.777   MPKI: 21.6865
STLB PREFETCH TRANSLATION ACCESS:    1205638  HIT:     447975  MISS:     757663  HIT %:    37.1567  MISS %:    62.8433   MPKI: 30.3065
STLB PREFETCH  REQUESTED:    2866560  ISSUED:    1351847  USEFUL:      31755  USELESS:     726133
STLB USEFUL LOAD PREFETCHES:      31755 PREFETCH ISSUED TO LOWER LEVEL:     824395  ACCURACY: 3.85192
STLB TIMELY PREFETCHES:      31755 LATE PREFETCHES: 8786 DROPPED PREFETCHES: 57949
STLB PREFETCHES SAME FILL-ORIGIN LEVEL: 824395 DIFFERENT FILL-ORIGIN LEVEL: 0
STLB AVERAGE MISS LATENCY: 103.252 cycles
STLB RQ	ACCESS:     662978	FORWARD:          0	MERGED:          0	TO_CACHE:     662978
STLB PQ	ACCESS:    1351847	FORWARD:          0	MERGED:      22101	TO_CACHE:    1329746

STLB Hit, L1D data hit: 0
STLB Hit, L2C data hit: 0
STLB Hit, LLC data hit: 0
STLB Hit, LLC data miss: 0
STLB STLB hints to L2: 0
L1D TOTAL     ACCESS:    4281982  HIT:    3076668  MISS:    1205314  HIT %:    71.8515  MISS %:    28.1485   MPKI: 48.2126
L1D LOAD      ACCESS:    3173317  HIT:    2037367  MISS:    1135950  HIT %:    64.2031  MISS %:    35.7969   MPKI: 45.438
L1D RFO       ACCESS:    1108665  HIT:    1039301  MISS:      69364  HIT %:    93.7435  MISS %:    6.25653   MPKI: 2.77456
L1D PREFETCH  REQUESTED:          0  ISSUED:          0  USEFUL:          0  USELESS:          0
L1D USEFUL LOAD PREFETCHES:          0 PREFETCH ISSUED TO LOWER LEVEL:          0  ACCURACY: -nan
L1D TIMELY PREFETCHES:          0 LATE PREFETCHES: 0 DROPPED PREFETCHES: 0
L1D PREFETCHES SAME FILL-ORIGIN LEVEL: 0 DIFFERENT FILL-ORIGIN LEVEL: 0
L1D AVERAGE MISS LATENCY: 125.329 cycles
L1D RQ	ACCESS:    6168171	FORWARD:          0	MERGED:    2909265	TO_CACHE:    3187745
L1D WQ	ACCESS:    1108674	FORWARD:      71161	MERGED:          7	TO_CACHE:    1108667

L1D UNIQUE REGIONS ACCESSED: 0
L1D REGIONS CONFLICTS: 0
L1D Cross Page Prefetch Requests: 0
L1D Same Page Prefetch Requests: 0
L1D ROI Sum of L1D PQ occupancy: 0
L1D PREFETCHES PUSHED FROM L2C: 0
L1I TOTAL     ACCESS:    4769600  HIT:    4769600  MISS:          0  HIT %:        100  MISS %:          0   MPKI: 0
L1I LOAD      ACCESS:    4769600  HIT:    4769600  MISS:          0  HIT %:        100  MISS %:          0   MPKI: 0
L1I PREFETCH  REQUESTED:          0  ISSUED:          0  USEFUL:          0  USELESS:          0
L1I USEFUL LOAD PREFETCHES:          0 PREFETCH ISSUED TO LOWER LEVEL:          0  ACCURACY: -nan
L1I TIMELY PREFETCHES:          0 LATE PREFETCHES: 0 DROPPED PREFETCHES: 0
L1I PREFETCHES SAME FILL-ORIGIN LEVEL: 0 DIFFERENT FILL-ORIGIN LEVEL: 0
L1I AVERAGE MISS LATENCY: -nan cycles
L1I RQ	ACCESS:    7015894	FORWARD:          0	MERGED:    2246294	TO_CACHE:    4769600

BTB TOTAL     ACCESS:    3283963  HIT:    3283955  MISS:          8  HIT %:    99.9998  MISS %: 0.000243608   MPKI: 0.00032
BTB BRANCH_DIRECT_JUMP	ACCESS:     568310  HIT:     568308  MISS:          2
BTB BRANCH_INDIRECT	ACCESS:          0  HIT:          0  MISS:          0
BTB BRANCH_CONDITIONAL	ACCESS:    1606985  HIT:    1606981  MISS:          4
BTB BRANCH_DIRECT_CALL	ACCESS:     554334  HIT:     554333  MISS:          1
BTB BRANCH_INDIRECT_CALL	ACCESS:          0  HIT:          0  MISS:          0
BTB BRANCH_RETURN	ACCESS:     554334  HIT:     554333  MISS:          1
BTB BRANCH_OTHER ACCESS:          0  HIT:          0  MISS:          0

L2C TOTAL     ACCESS:    3234809  HIT:    2085412  MISS:    1149397  HIT %:    64.4679  MISS %:    35.5321   MPKI: 45.9759
L2C LOAD      ACCESS:    1135949  HIT:     400056  MISS:     735893  HIT %:    35.2178  MISS %:    64.7822   MPKI: 29.4357
L2C DATA LOAD MPKI: 29.4357
L2C INSTRUCTION LOAD MPKI: 0
L2C RFO       ACCESS:      69364  HIT:      34559  MISS:      34805  HIT %:    49.8227  MISS %:    50.1773   MPKI: 1.3922
L2C WRITEBACK ACCESS:     554350  HIT:     554350  MISS:          0  HIT %:        100  MISS %:          0   MPKI: 0
L2C LOAD TRANSLATION ACCESS:     544492  HIT:     456551  MISS:      87941  HIT %:     83.849  MISS %:     16.151   MPKI: 3.51764
L2C PREFETCH TRANSLATION ACCESS:     930654  HIT:     639896  MISS:     290758  HIT %:    68.7577  MISS %:    31.2423   MPKI: 11.6303
L2C PREFETCH  REQUESTED:          0  ISSUED:          0  USEFUL:     236912  USELESS:      53746
L2C USEFUL LOAD PREFETCHES:     236912 PREFETCH ISSUED TO LOWER LEVEL:          0  ACCURACY: inf
L2C TIMELY PREFETCHES:     236912 LATE PREFETCHES: 0 DROPPED PREFETCHES: 0
L2C PREFETCHES SAME FILL-ORIGIN LEVEL: 0 DIFFERENT FILL-ORIGIN LEVEL: 0
L2C AVERAGE MISS LATENCY: 127.005 cycles
L2C RQ	ACCESS:    2680462	FORWARD:          0	MERGED:          0	TO_CACHE:    2680462
L2C WQ	ACCESS:     554350	FORWARD:          0	MERGED:          0	TO_CACHE:     554350

L2C Instructions Evicting Data 0
L2C Translations Evicting Data 215931
L2C Data Evicting Data 554559
L2C Instructions Evicting Instructions 0
L2C Translations Evicting Instructions 0
L2C Data Evicting Instructions 0
L2C Instructions Evicting Translations 0
L2C Translations Evicting Translations 162768
L2C Data Evicting Translations 216139
L2C Dense regions hint from L2: 0
PSCL5 TOTAL     ACCESS:    1357776  HIT:    1357776  MISS:          0  HIT %:        100  MISS %:          0   MPKI: 0
PSCL5 LOAD TRANSLATION ACCESS:     533378  HIT:     533378  MISS:          0  HIT %:        100  MISS %:          0   MPKI: 0
PSCL5 PREFETCH TRANSLATION ACCESS:     824398  HIT:     824398  MISS:          0  HIT %:        100  MISS %:          0   MPKI: 0
PSCL5 PREFETCH  REQUESTED:          0  ISSUED:          0  USEFUL:          0  USELESS:          0
PSCL5 USEFUL LOAD PREFETCHES:          0 PREFETCH ISSUED TO LOWER LEVEL:          0  ACCURACY: -nan
PSCL5 TIMELY PREFETCHES:          0 LATE PREFETCHES: 0 DROPPED PREFETCHES: 0
PSCL5 PREFETCHES SAME FILL-ORIGIN LEVEL: 0 DIFFERENT FILL-ORIGIN LEVEL: 0

PSCL4 TOTAL     ACCESS:    1357776  HIT:    1357776  MISS:          0  HIT %:        100  MISS %:          0   MPKI: 0
PSCL4 LOAD TRANSLATION ACCESS:     533378  HIT:     533378  MISS:          0  HIT %:        100  MISS %:          0   MPKI: 0
PSCL4 PREFETCH TRANSLATION ACCESS:     824398  HIT:     824398  MISS:          0  HIT %:        100  MISS %:          0   MPKI: 0
PSCL4 PREFETCH  REQUESTED:          0  ISSUED:          0  USEFUL:          0  USELESS:          0
PSCL4 USEFUL LOAD PREFETCHES:          0 PREFETCH ISSUED TO LOWER LEVEL:          0  ACCURACY: -nan
PSCL4 TIMELY PREFETCHES:          0 LATE PREFETCHES: 0 DROPPED PREFETCHES: 0
PSCL4 PREFETCHES SAME FILL-ORIGIN LEVEL: 0 DIFFERENT FILL-ORIGIN LEVEL: 0

PSCL3 TOTAL     ACCESS:    1355752  HIT:    1355752  MISS:          0  HIT %:        100  MISS %:          0   MPKI: 0
PSCL3 LOAD TRANSLATION ACCESS:     533378  HIT:     533378  MISS:          0  HIT %:        100  MISS %:          0   MPKI: 0
PSCL3 PREFETCH TRANSLATION ACCESS:     822374  HIT:     822374  MISS:          0  HIT %:        100  MISS %:          0   MPKI: 0
PSCL3 PREFETCH  REQUESTED:          0  ISSUED:          0  USEFUL:          0  USELESS:          0
PSCL3 USEFUL LOAD PREFETCHES:          0 PREFETCH ISSUED TO LOWER LEVEL:          0  ACCURACY: -nan
PSCL3 TIMELY PREFETCHES:          0 LATE PREFETCHES: 0 DROPPED PREFETCHES: 0
PSCL3 PREFETCHES SAME FILL-ORIGIN LEVEL: 0 DIFFERENT FILL-ORIGIN LEVEL: 0

PSCL2 TOTAL     ACCESS:    1314011  HIT:    1232414  MISS:      81597  HIT %:    93.7902  MISS %:    6.20977   MPKI: 3.26388
PSCL2 LOAD TRANSLATION ACCESS:     603861  HIT:     522264  MISS:      81597  HIT %:    86.4875  MISS %:    13.5125   MPKI: 3.26388
PSCL2 PREFETCH TRANSLATION ACCESS:     710150  HIT:     710150  MISS:          0  HIT %:        100  MISS %:          0   MPKI: 0
PSCL2 PREFETCH  REQUESTED:          0  ISSUED:          0  USEFUL:          0  USELESS:          0
PSCL2 USEFUL LOAD PREFETCHES:          0 PREFETCH ISSUED TO LOWER LEVEL:          0  ACCURACY: -nan
PSCL2 TIMELY PREFETCHES:          0 LATE PREFETCHES: 0 DROPPED PREFETCHES: 0
PSCL2 PREFETCHES SAME FILL-ORIGIN LEVEL: 0 DIFFERENT FILL-ORIGIN LEVEL: 0

LLC TOTAL     ACCESS:    1704066  HIT:    1051490  MISS:     652576  HIT %:    61.7048  MISS %:    38.2952   MPKI: 26.103
LLC LOAD      ACCESS:     735893  HIT:      94373  MISS:     641520  HIT %:    12.8243  MISS %:    87.1757   MPKI: 25.6608
LLC RFO       ACCESS:      34805  HIT:      34801  MISS:          4  HIT %:    99.9885  MISS %:  0.0114926   MPKI: 0.00016
LLC WRITEBACK ACCESS:     554669  HIT:     554669  MISS:          0  HIT %:        100  MISS %:          0   MPKI: 0
LLC LOAD TRANSLATION ACCESS:      87941  HIT:      85501  MISS:       2440  HIT %:    97.2254  MISS %:    2.77459   MPKI: 0.0976
LLC PREFETCH TRANSLATION ACCESS:     290758  HIT:     282146  MISS:       8612  HIT %:    97.0381  MISS %:    2.96191   MPKI: 0.34448
LLC PREFETCH  REQUESTED:          0  ISSUED:          0  USEFUL:       4962  USELESS:       3594
LLC USEFUL LOAD PREFETCHES:       4962 PREFETCH ISSUED TO LOWER LEVEL:          0  ACCURACY: inf
LLC TIMELY PREFETCHES:       4962 LATE PREFETCHES: 0 DROPPED PREFETCHES: 0
LLC PREFETCHES SAME FILL-ORIGIN LEVEL: 0 DIFFERENT FILL-ORIGIN LEVEL: 0
LLC AVERAGE MISS LATENCY: 170.645 cycles
LLC RQ	ACCESS:    1149399	FORWARD:          0	MERGED:          0	TO_CACHE:    1149399
LLC WQ	ACCESS:     554668	FORWARD:          0	MERGED:          0	TO_CACHE:     554668

LLC Dense regions hint to LLC: 0

RAW hits: 482362
Loads Generated: 6650536
Loads sent to L1D: 6168171
Stores Generated: 1108672
Stores sent to L1D: 1108674
Major fault: 0 Minor fault: 23116
Allocated PAGES: 23116
CPU 0 STLB arbitrary stride prefetcher final stats
Degree: 16

DRAM Statistics
 CHANNEL 0
 RQ ROW_BUFFER_HIT:        969  ROW_BUFFER_MISS:     651607
 DBUS_CONGESTED:          2
 WQ ROW_BUFFER_HIT:     243046  ROW_BUFFER_MISS:     311449  FULL:          0

 AVG_CONGESTED_CYCLE: 5
 All warmup complete: 2
Channel 0 Bank busy for read cycles: 0
Channel 0 Bank busy for write cycles: 0
Channel 0
Rank 0
0banks busy for read cycles: 1750566
0banks busy for write cycles: 44855
1banks busy for read cycles: 17089415
1banks busy for write cycles: 3583499
2banks busy for read cycles: 13035806
2banks busy for write cycles: 5946689
3banks busy for read cycles: 12311111
3banks busy for write cycles: 9407305
4banks busy for read cycles: 4338016
4banks busy for write cycles: 8614288
5banks busy for read cycles: 68554
5banks busy for write cycles: 3665835
6banks busy for read cycles: 211
6banks busy for write cycles: 1510486
7banks busy for read cycles: 0
7banks busy for write cycles: 806518
8banks busy for read cycles: 0
8banks busy for write cycles: 618245

CPU 0 Branch Prediction Accuracy: 99.9685% MPKI: 0.04912 Average ROB Occupancy at Mispredict: 155.395
Branch types
NOT_BRANCH: 21105636 84.4225%
BRANCH_DIRECT_JUMP: 568310 2.27324%
BRANCH_INDIRECT: 0 0%
BRANCH_CONDITIONAL: 2217336 8.86934%
BRANCH_DIRECT_CALL: 554334 2.21734%
BRANCH_INDIRECT_CALL: 0 0%
BRANCH_RETURN: 554334 2.21734%
BRANCH_OTHER: 0 0%

DRAM PAGES: 1048576
Allocated PAGES: 23116
