
*** ChampSim Multicore Out-of-Order Simulator ***

Warmup Instructions: 25000000
Simulation Instructions: 25000000
Number of CPUs: 1
LLC sets: 2048
LLC ways: 16
Off-chip DRAM Size: 4096 MB Channels: 1 Width: 64-bit Data Rate: 6400 MT/s
CPU 0 runs given/traces/trace1.champsimtrace.xz
.xz
CPU 0 Bimodal branch predictor
BTB has LRU replacement policy
ITLB has LRU replacement policy
DTLB has LRU replacement policy
CPU 0 STLB arbitrary stride prefetcher
STLB has LRU replacement policy
L1I has LRU replacement policy
L1D has LRU replacement policy
L2C has LRU replacement policy
LLC has LRU replacement policy
Heartbeat CPU 0 instructions: 10000003 cycles: 2821085 heartbeat IPC: 3.54474 cumulative IPC: 3.54474 (Simulation time: 0 hr 0 min 13 sec) 
Heartbeat CPU 0 instructions: 20000003 cycles: 5631051 heartbeat IPC: 3.55876 cumulative IPC: 3.55174 (Simulation time: 0 hr 0 min 25 sec) 

Warmup complete CPU 0 instructions: 25000004 cycles: 7041491 (Simulation time: 0 hr 0 min 31 sec) 

Heartbeat CPU 0 instructions: 30000002 cycles: 23850199 heartbeat IPC: 0.548873 cumulative IPC: 0.297465 (Simulation time: 0 hr 0 min 46 sec) 
Heartbeat CPU 0 instructions: 40000001 cycles: 59842937 heartbeat IPC: 0.277834 cumulative IPC: 0.284083 (Simulation time: 0 hr 1 min 16 sec) 
Heartbeat CPU 0 instructions: 50000000 cycles: 94645600 heartbeat IPC: 0.287334 cumulative IPC: 0.285375 (Simulation time: 0 hr 1 min 46 sec) 
Finished CPU 0 instructions: 25000000 cycles: 87604111 cumulative IPC: 0.285375 (Simulation time: 0 hr 1 min 46 sec) 

ChampSim completed all CPUs

Region of Interest Statistics

CPU 0 cumulative IPC: 0.285375 instructions: 25000000 cycles: 87604111
ITLB TOTAL     ACCESS:    4436313  HIT:    4436313  MISS:          0  HIT %:        100  MISS %:          0   MPKI: 0
ITLB LOAD TRANSLATION ACCESS:    4436313  HIT:    4436313  MISS:          0  HIT %:        100  MISS %:          0   MPKI: 0
ITLB PREFETCH  REQUESTED:          0  ISSUED:          0  USEFUL:          0  USELESS:          0
ITLB USEFUL LOAD PREFETCHES:          0 PREFETCH ISSUED TO LOWER LEVEL:          0  ACCURACY: -nan
ITLB TIMELY PREFETCHES:          0 LATE PREFETCHES: 0 DROPPED PREFETCHES: 0
ITLB PREFETCHES SAME FILL-ORIGIN LEVEL: 0 DIFFERENT FILL-ORIGIN LEVEL: 0
ITLB AVERAGE MISS LATENCY: -nan cycles
ITLB RQ	ACCESS:    4790148	FORWARD:          0	MERGED:     353835	TO_CACHE:    4436313

DTLB TOTAL     ACCESS:    3713568  HIT:    3050643  MISS:     662925  HIT %:    82.1486  MISS %:    17.8514   MPKI: 26.517
DTLB LOAD TRANSLATION ACCESS:    3713568  HIT:    3050643  MISS:     662925  HIT %:    82.1486  MISS %:    17.8514   MPKI: 26.517
DTLB PREFETCH  REQUESTED:          0  ISSUED:          0  USEFUL:          0  USELESS:          0
DTLB USEFUL LOAD PREFETCHES:          0 PREFETCH ISSUED TO LOWER LEVEL:          0  ACCURACY: -nan
DTLB TIMELY PREFETCHES:          0 LATE PREFETCHES: 0 DROPPED PREFETCHES: 0
DTLB PREFETCHES SAME FILL-ORIGIN LEVEL: 0 DIFFERENT FILL-ORIGIN LEVEL: 0
DTLB AVERAGE MISS LATENCY: 51.6994 cycles
DTLB RQ	ACCESS:    4312951	FORWARD:          0	MERGED:     590933	TO_CACHE:    3722018

STLB TOTAL     ACCESS:    1011031  HIT:     299289  MISS:     711742  HIT %:    29.6024  MISS %:    70.3976   MPKI: 28.4697
STLB LOAD TRANSLATION ACCESS:     662925  HIT:     106546  MISS:     556379  HIT %:    16.0721  MISS %:    83.9279   MPKI: 22.2552
STLB PREFETCH TRANSLATION ACCESS:     348106  HIT:     192743  MISS:     155363  HIT %:    55.3691  MISS %:    44.6309   MPKI: 6.21452
STLB PREFETCH  REQUESTED:     374524  ISSUED:     374524  USEFUL:       6374  USELESS:     149527
STLB USEFUL LOAD PREFETCHES:       6374 PREFETCH ISSUED TO LOWER LEVEL:     169807  ACCURACY: 3.75367
STLB TIMELY PREFETCHES:       6374 LATE PREFETCHES: 1669 DROPPED PREFETCHES: 12775
STLB PREFETCHES SAME FILL-ORIGIN LEVEL: 169807 DIFFERENT FILL-ORIGIN LEVEL: 0
STLB AVERAGE MISS LATENCY: 64.5065 cycles
STLB RQ	ACCESS:     662928	FORWARD:          0	MERGED:          0	TO_CACHE:     662928
STLB PQ	ACCESS:     374524	FORWARD:          0	MERGED:       5139	TO_CACHE:     369385

STLB Hit, L1D data hit: 0
STLB Hit, L2C data hit: 0
STLB Hit, LLC data hit: 0
STLB Hit, LLC data miss: 0
STLB STLB hints to L2: 0
L1D TOTAL     ACCESS:    4294178  HIT:    3088930  MISS:    1205248  HIT %:     71.933  MISS %:     28.067   MPKI: 48.2099
L1D LOAD      ACCESS:    3185514  HIT:    2049630  MISS:    1135884  HIT %:    64.3422  MISS %:    35.6578   MPKI: 45.4354
L1D RFO       ACCESS:    1108664  HIT:    1039300  MISS:      69364  HIT %:    93.7435  MISS %:    6.25654   MPKI: 2.77456
L1D PREFETCH  REQUESTED:          0  ISSUED:          0  USEFUL:          0  USELESS:          0
L1D USEFUL LOAD PREFETCHES:          0 PREFETCH ISSUED TO LOWER LEVEL:          0  ACCURACY: -nan
L1D TIMELY PREFETCHES:          0 LATE PREFETCHES: 0 DROPPED PREFETCHES: 0
L1D PREFETCHES SAME FILL-ORIGIN LEVEL: 0 DIFFERENT FILL-ORIGIN LEVEL: 0
L1D AVERAGE MISS LATENCY: 124.74 cycles
L1D RQ	ACCESS:    6163299	FORWARD:          0	MERGED:    2892722	TO_CACHE:    3204285
L1D WQ	ACCESS:    1108674	FORWARD:      66292	MERGED:          8	TO_CACHE:    1108666

L1D UNIQUE REGIONS ACCESSED: 0
L1D REGIONS CONFLICTS: 0
L1D Cross Page Prefetch Requests: 0
L1D Same Page Prefetch Requests: 0
L1D ROI Sum of L1D PQ occupancy: 0
L1D PREFETCHES PUSHED FROM L2C: 0
L1I TOTAL     ACCESS:    4790146  HIT:    4790146  MISS:          0  HIT %:        100  MISS %:          0   MPKI: 0
L1I LOAD      ACCESS:    4790146  HIT:    4790146  MISS:          0  HIT %:        100  MISS %:          0   MPKI: 0
L1I PREFETCH  REQUESTED:          0  ISSUED:          0  USEFUL:          0  USELESS:          0
L1I USEFUL LOAD PREFETCHES:          0 PREFETCH ISSUED TO LOWER LEVEL:          0  ACCURACY: -nan
L1I TIMELY PREFETCHES:          0 LATE PREFETCHES: 0 DROPPED PREFETCHES: 0
L1I PREFETCHES SAME FILL-ORIGIN LEVEL: 0 DIFFERENT FILL-ORIGIN LEVEL: 0
L1I AVERAGE MISS LATENCY: -nan cycles
L1I RQ	ACCESS:    7091350	FORWARD:          0	MERGED:    2301202	TO_CACHE:    4790148

BTB TOTAL     ACCESS:    3283965  HIT:    3283957  MISS:          8  HIT %:    99.9998  MISS %: 0.000243608   MPKI: 0.00032
BTB BRANCH_DIRECT_JUMP	ACCESS:     568311  HIT:     568309  MISS:          2
BTB BRANCH_INDIRECT	ACCESS:          0  HIT:          0  MISS:          0
BTB BRANCH_CONDITIONAL	ACCESS:    1606986  HIT:    1606982  MISS:          4
BTB BRANCH_DIRECT_CALL	ACCESS:     554334  HIT:     554333  MISS:          1
BTB BRANCH_INDIRECT_CALL	ACCESS:          0  HIT:          0  MISS:          0
BTB BRANCH_RETURN	ACCESS:     554334  HIT:     554333  MISS:          1
BTB BRANCH_OTHER ACCESS:          0  HIT:          0  MISS:          0

L2C TOTAL     ACCESS:    2569820  HIT:    1555368  MISS:    1014452  HIT %:    60.5244  MISS %:    39.4756   MPKI: 40.5781
L2C LOAD      ACCESS:    1135884  HIT:     414628  MISS:     721256  HIT %:    36.5027  MISS %:    63.4973   MPKI: 28.8502
L2C DATA LOAD MPKI: 28.8502
L2C INSTRUCTION LOAD MPKI: 0
L2C RFO       ACCESS:      69364  HIT:      41086  MISS:      28278  HIT %:    59.2325  MISS %:    40.7675   MPKI: 1.13112
L2C WRITEBACK ACCESS:     554349  HIT:     554349  MISS:          0  HIT %:        100  MISS %:          0   MPKI: 0
L2C LOAD TRANSLATION ACCESS:     615412  HIT:     403669  MISS:     211743  HIT %:    65.5933  MISS %:    34.4067   MPKI: 8.46972
L2C PREFETCH TRANSLATION ACCESS:     194811  HIT:     141636  MISS:      53175  HIT %:    72.7043  MISS %:    27.2957   MPKI: 2.127
L2C PREFETCH  REQUESTED:          0  ISSUED:          0  USEFUL:      40599  USELESS:      12643
L2C USEFUL LOAD PREFETCHES:      40599 PREFETCH ISSUED TO LOWER LEVEL:          0  ACCURACY: inf
L2C TIMELY PREFETCHES:      40599 LATE PREFETCHES: 0 DROPPED PREFETCHES: 0
L2C PREFETCHES SAME FILL-ORIGIN LEVEL: 0 DIFFERENT FILL-ORIGIN LEVEL: 0
L2C AVERAGE MISS LATENCY: 139.923 cycles
L2C RQ	ACCESS:    2015472	FORWARD:          0	MERGED:          0	TO_CACHE:    2015472
L2C WQ	ACCESS:     554349	FORWARD:          0	MERGED:          0	TO_CACHE:     554349

L2C Instructions Evicting Data 0
L2C Translations Evicting Data 159420
L2C Data Evicting Data 589839
L2C Instructions Evicting Instructions 0
L2C Translations Evicting Instructions 0
L2C Data Evicting Instructions 0
L2C Instructions Evicting Translations 0
L2C Translations Evicting Translations 105498
L2C Data Evicting Translations 159695
L2C Dense regions hint from L2: 0
PSCL5 TOTAL     ACCESS:     724518  HIT:     724518  MISS:          0  HIT %:        100  MISS %:          0   MPKI: 0
PSCL5 LOAD TRANSLATION ACCESS:     554711  HIT:     554711  MISS:          0  HIT %:        100  MISS %:          0   MPKI: 0
PSCL5 PREFETCH TRANSLATION ACCESS:     169807  HIT:     169807  MISS:          0  HIT %:        100  MISS %:          0   MPKI: 0
PSCL5 PREFETCH  REQUESTED:          0  ISSUED:          0  USEFUL:          0  USELESS:          0
PSCL5 USEFUL LOAD PREFETCHES:          0 PREFETCH ISSUED TO LOWER LEVEL:          0  ACCURACY: -nan
PSCL5 TIMELY PREFETCHES:          0 LATE PREFETCHES: 0 DROPPED PREFETCHES: 0
PSCL5 PREFETCHES SAME FILL-ORIGIN LEVEL: 0 DIFFERENT FILL-ORIGIN LEVEL: 0

PSCL4 TOTAL     ACCESS:     724518  HIT:     724518  MISS:          0  HIT %:        100  MISS %:          0   MPKI: 0
PSCL4 LOAD TRANSLATION ACCESS:     554711  HIT:     554711  MISS:          0  HIT %:        100  MISS %:          0   MPKI: 0
PSCL4 PREFETCH TRANSLATION ACCESS:     169807  HIT:     169807  MISS:          0  HIT %:        100  MISS %:          0   MPKI: 0
PSCL4 PREFETCH  REQUESTED:          0  ISSUED:          0  USEFUL:          0  USELESS:          0
PSCL4 USEFUL LOAD PREFETCHES:          0 PREFETCH ISSUED TO LOWER LEVEL:          0  ACCURACY: -nan
PSCL4 TIMELY PREFETCHES:          0 LATE PREFETCHES: 0 DROPPED PREFETCHES: 0
PSCL4 PREFETCHES SAME FILL-ORIGIN LEVEL: 0 DIFFERENT FILL-ORIGIN LEVEL: 0

PSCL3 TOTAL     ACCESS:     724459  HIT:     724459  MISS:          0  HIT %:        100  MISS %:          0   MPKI: 0
PSCL3 LOAD TRANSLATION ACCESS:     554711  HIT:     554711  MISS:          0  HIT %:        100  MISS %:          0   MPKI: 0
PSCL3 PREFETCH TRANSLATION ACCESS:     169748  HIT:     169748  MISS:          0  HIT %:        100  MISS %:          0   MPKI: 0
PSCL3 PREFETCH  REQUESTED:          0  ISSUED:          0  USEFUL:          0  USELESS:          0
PSCL3 USEFUL LOAD PREFETCHES:          0 PREFETCH ISSUED TO LOWER LEVEL:          0  ACCURACY: -nan
PSCL3 TIMELY PREFETCHES:          0 LATE PREFETCHES: 0 DROPPED PREFETCHES: 0
PSCL3 PREFETCHES SAME FILL-ORIGIN LEVEL: 0 DIFFERENT FILL-ORIGIN LEVEL: 0

PSCL2 TOTAL     ACCESS:     714206  HIT:     636820  MISS:      77386  HIT %:    89.1648  MISS %:    10.8352   MPKI: 3.09544
PSCL2 LOAD TRANSLATION ACCESS:     571395  HIT:     494009  MISS:      77386  HIT %:    86.4567  MISS %:    13.5433   MPKI: 3.09544
PSCL2 PREFETCH TRANSLATION ACCESS:     142811  HIT:     142811  MISS:          0  HIT %:        100  MISS %:          0   MPKI: 0
PSCL2 PREFETCH  REQUESTED:          0  ISSUED:          0  USEFUL:          0  USELESS:          0
PSCL2 USEFUL LOAD PREFETCHES:          0 PREFETCH ISSUED TO LOWER LEVEL:          0  ACCURACY: -nan
PSCL2 TIMELY PREFETCHES:          0 LATE PREFETCHES: 0 DROPPED PREFETCHES: 0
PSCL2 PREFETCHES SAME FILL-ORIGIN LEVEL: 0 DIFFERENT FILL-ORIGIN LEVEL: 0

LLC TOTAL     ACCESS:    1569068  HIT:     916249  MISS:     652819  HIT %:    58.3945  MISS %:    41.6055   MPKI: 26.1128
LLC LOAD      ACCESS:     721256  HIT:      79782  MISS:     641474  HIT %:    11.0615  MISS %:    88.9385   MPKI: 25.659
LLC RFO       ACCESS:      28278  HIT:      28274  MISS:          4  HIT %:    99.9859  MISS %:  0.0141453   MPKI: 0.00016
LLC WRITEBACK ACCESS:     554616  HIT:     554616  MISS:          0  HIT %:        100  MISS %:          0   MPKI: 0
LLC LOAD TRANSLATION ACCESS:     211743  HIT:     204918  MISS:       6825  HIT %:    96.7768  MISS %:    3.22325   MPKI: 0.273
LLC PREFETCH TRANSLATION ACCESS:      53175  HIT:      48659  MISS:       4516  HIT %:    91.5073  MISS %:    8.49271   MPKI: 0.18064
LLC PREFETCH  REQUESTED:          0  ISSUED:          0  USEFUL:       3193  USELESS:       1423
LLC USEFUL LOAD PREFETCHES:       3193 PREFETCH ISSUED TO LOWER LEVEL:          0  ACCURACY: inf
LLC TIMELY PREFETCHES:       3193 LATE PREFETCHES: 0 DROPPED PREFETCHES: 0
LLC PREFETCHES SAME FILL-ORIGIN LEVEL: 0 DIFFERENT FILL-ORIGIN LEVEL: 0
LLC AVERAGE MISS LATENCY: 170.623 cycles
LLC RQ	ACCESS:    1014453	FORWARD:          0	MERGED:          0	TO_CACHE:    1014453
LLC WQ	ACCESS:     554616	FORWARD:          0	MERGED:          0	TO_CACHE:     554616

LLC Dense regions hint to LLC: 0

RAW hits: 487231
Loads Generated: 6650533
Loads sent to L1D: 6163299
Stores Generated: 1108670
Stores sent to L1D: 1108674
Major fault: 0 Minor fault: 23115
Allocated PAGES: 23115
CPU 0 STLB arbitrary stride prefetcher final stats
Degree: 4

DRAM Statistics
 CHANNEL 0
 RQ ROW_BUFFER_HIT:        804  ROW_BUFFER_MISS:     652015
 DBUS_CONGESTED:          6
 WQ ROW_BUFFER_HIT:     209283  ROW_BUFFER_MISS:     344950  FULL:          0

 AVG_CONGESTED_CYCLE: 5
 All warmup complete: 2
Channel 0 Bank busy for read cycles: 0
Channel 0 Bank busy for write cycles: 0
Channel 0
Rank 0
0banks busy for read cycles: 2617737
0banks busy for write cycles: 59833
1banks busy for read cycles: 20303305
1banks busy for write cycles: 4672755
2banks busy for read cycles: 14124055
2banks busy for write cycles: 6838722
3banks busy for read cycles: 11425683
3banks busy for write cycles: 9882345
4banks busy for read cycles: 3683044
4banks busy for write cycles: 8277527
5banks busy for read cycles: 56031
5banks busy for write cycles: 3240893
6banks busy for read cycles: 292
6banks busy for write cycles: 1279924
7banks busy for read cycles: 0
7banks busy for write cycles: 624520
8banks busy for read cycles: 0
8banks busy for write cycles: 517446

CPU 0 Branch Prediction Accuracy: 99.9685% MPKI: 0.04912 Average ROB Occupancy at Mispredict: 155.698
Branch types
NOT_BRANCH: 21105652 84.4226%
BRANCH_DIRECT_JUMP: 568311 2.27324%
BRANCH_INDIRECT: 0 0%
BRANCH_CONDITIONAL: 2217337 8.86935%
BRANCH_DIRECT_CALL: 554334 2.21734%
BRANCH_INDIRECT_CALL: 0 0%
BRANCH_RETURN: 554334 2.21734%
BRANCH_OTHER: 0 0%

DRAM PAGES: 1048576
Allocated PAGES: 23115
