
*** ChampSim Multicore Out-of-Order Simulator ***

Warmup Instructions: 25000000
Simulation Instructions: 25000000
Number of CPUs: 1
LLC sets: 2048
LLC ways: 16
Off-chip DRAM Size: 4096 MB Channels: 1 Width: 64-bit Data Rate: 6400 MT/s
CPU 0 runs given/traces/trace1.champsimtrace.xz
.xz
CPU 0 Bimodal branch predictor
BTB has LRU replacement policy
ITLB has LRU replacement policy
DTLB has LRU replacement policy
CPU 0 STLB arbitrary stride prefetcher
STLB has LRU replacement policy
L1I has LRU replacement policy
L1D has LRU replacement policy
L2C has LRU replacement policy
LLC has LRU replacement policy
Heartbeat CPU 0 instructions: 10000003 cycles: 2825278 heartbeat IPC: 3.53948 cumulative IPC: 3.53948 (Simulation time: 0 hr 0 min 14 sec) 
Heartbeat CPU 0 instructions: 20000003 cycles: 5637534 heartbeat IPC: 3.55586 cumulative IPC: 3.54765 (Simulation time: 0 hr 0 min 26 sec) 

Warmup complete CPU 0 instructions: 25000004 cycles: 7049204 (Simulation time: 0 hr 0 min 33 sec) 

Heartbeat CPU 0 instructions: 30000002 cycles: 23740815 heartbeat IPC: 0.552386 cumulative IPC: 0.299552 (Simulation time: 0 hr 0 min 47 sec) 
Heartbeat CPU 0 instructions: 40000001 cycles: 59403820 heartbeat IPC: 0.280403 cumulative IPC: 0.286508 (Simulation time: 0 hr 1 min 18 sec) 
Heartbeat CPU 0 instructions: 50000003 cycles: 93870460 heartbeat IPC: 0.290136 cumulative IPC: 0.287948 (Simulation time: 0 hr 1 min 47 sec) 
Finished CPU 0 instructions: 25000003 cycles: 86821257 cumulative IPC: 0.287948 (Simulation time: 0 hr 1 min 47 sec) 

ChampSim completed all CPUs

Region of Interest Statistics

CPU 0 cumulative IPC: 0.287948 instructions: 25000003 cycles: 86821257
ITLB TOTAL     ACCESS:    4429403  HIT:    4429403  MISS:          0  HIT %:        100  MISS %:          0   MPKI: 0
ITLB LOAD TRANSLATION ACCESS:    4429403  HIT:    4429403  MISS:          0  HIT %:        100  MISS %:          0   MPKI: 0
ITLB PREFETCH  REQUESTED:          0  ISSUED:          0  USEFUL:          0  USELESS:          0
ITLB USEFUL LOAD PREFETCHES:          0 PREFETCH ISSUED TO LOWER LEVEL:          0  ACCURACY: -nan
ITLB TIMELY PREFETCHES:          0 LATE PREFETCHES: 0 DROPPED PREFETCHES: 0
ITLB PREFETCHES SAME FILL-ORIGIN LEVEL: 0 DIFFERENT FILL-ORIGIN LEVEL: 0
ITLB AVERAGE MISS LATENCY: -nan cycles
ITLB RQ	ACCESS:    4785188	FORWARD:          0	MERGED:     355786	TO_CACHE:    4429402

DTLB TOTAL     ACCESS:    3710879  HIT:    3047942  MISS:     662937  HIT %:    82.1353  MISS %:    17.8647   MPKI: 26.5175
DTLB LOAD TRANSLATION ACCESS:    3710879  HIT:    3047942  MISS:     662937  HIT %:    82.1353  MISS %:    17.8647   MPKI: 26.5175
DTLB PREFETCH  REQUESTED:          0  ISSUED:          0  USEFUL:          0  USELESS:          0
DTLB USEFUL LOAD PREFETCHES:          0 PREFETCH ISSUED TO LOWER LEVEL:          0  ACCURACY: -nan
DTLB TIMELY PREFETCHES:          0 LATE PREFETCHES: 0 DROPPED PREFETCHES: 0
DTLB PREFETCHES SAME FILL-ORIGIN LEVEL: 0 DIFFERENT FILL-ORIGIN LEVEL: 0
DTLB AVERAGE MISS LATENCY: 50.4873 cycles
DTLB RQ	ACCESS:    4310103	FORWARD:          0	MERGED:     590289	TO_CACHE:    3719814

STLB TOTAL     ACCESS:    1373703  HIT:     484174  MISS:     889529  HIT %:    35.2459  MISS %:    64.7541   MPKI: 35.5812
STLB LOAD TRANSLATION ACCESS:     662937  HIT:     106717  MISS:     556220  HIT %:    16.0976  MISS %:    83.9024   MPKI: 22.2488
STLB PREFETCH TRANSLATION ACCESS:     710766  HIT:     377457  MISS:     333309  HIT %:    53.1057  MISS %:    46.8943   MPKI: 13.3324
STLB PREFETCH  REQUESTED:     785992  ISSUED:     769648  USEFUL:       8307  USELESS:     325518
STLB USEFUL LOAD PREFETCHES:       8307 PREFETCH ISSUED TO LOWER LEVEL:     372319  ACCURACY: 2.23115
STLB TIMELY PREFETCHES:       8307 LATE PREFETCHES: 2022 DROPPED PREFETCHES: 36992
STLB PREFETCHES SAME FILL-ORIGIN LEVEL: 372319 DIFFERENT FILL-ORIGIN LEVEL: 0
STLB AVERAGE MISS LATENCY: 87.824 cycles
STLB RQ	ACCESS:     662938	FORWARD:          0	MERGED:          0	TO_CACHE:     662938
STLB PQ	ACCESS:     769648	FORWARD:          0	MERGED:       6081	TO_CACHE:     763567

STLB Hit, L1D data hit: 0
STLB Hit, L2C data hit: 0
STLB Hit, LLC data hit: 0
STLB Hit, LLC data miss: 0
STLB STLB hints to L2: 0
L1D TOTAL     ACCESS:    4292338  HIT:    3087055  MISS:    1205283  HIT %:    71.9201  MISS %:    28.0799   MPKI: 48.2113
L1D LOAD      ACCESS:    3183674  HIT:    2047755  MISS:    1135919  HIT %:    64.3205  MISS %:    35.6795   MPKI: 45.4368
L1D RFO       ACCESS:    1108664  HIT:    1039300  MISS:      69364  HIT %:    93.7435  MISS %:    6.25654   MPKI: 2.77456
L1D PREFETCH  REQUESTED:          0  ISSUED:          0  USEFUL:          0  USELESS:          0
L1D USEFUL LOAD PREFETCHES:          0 PREFETCH ISSUED TO LOWER LEVEL:          0  ACCURACY: -nan
L1D TIMELY PREFETCHES:          0 LATE PREFETCHES: 0 DROPPED PREFETCHES: 0
L1D PREFETCHES SAME FILL-ORIGIN LEVEL: 0 DIFFERENT FILL-ORIGIN LEVEL: 0
L1D AVERAGE MISS LATENCY: 124.913 cycles
L1D RQ	ACCESS:    6164685	FORWARD:          0	MERGED:    2895573	TO_CACHE:    3201437
L1D WQ	ACCESS:    1108674	FORWARD:      67675	MERGED:          8	TO_CACHE:    1108666

L1D UNIQUE REGIONS ACCESSED: 0
L1D REGIONS CONFLICTS: 0
L1D Cross Page Prefetch Requests: 0
L1D Same Page Prefetch Requests: 0
L1D ROI Sum of L1D PQ occupancy: 0
L1D PREFETCHES PUSHED FROM L2C: 0
L1I TOTAL     ACCESS:    4785188  HIT:    4785188  MISS:          0  HIT %:        100  MISS %:          0   MPKI: 0
L1I LOAD      ACCESS:    4785188  HIT:    4785188  MISS:          0  HIT %:        100  MISS %:          0   MPKI: 0
L1I PREFETCH  REQUESTED:          0  ISSUED:          0  USEFUL:          0  USELESS:          0
L1I USEFUL LOAD PREFETCHES:          0 PREFETCH ISSUED TO LOWER LEVEL:          0  ACCURACY: -nan
L1I TIMELY PREFETCHES:          0 LATE PREFETCHES: 0 DROPPED PREFETCHES: 0
L1I PREFETCHES SAME FILL-ORIGIN LEVEL: 0 DIFFERENT FILL-ORIGIN LEVEL: 0
L1I AVERAGE MISS LATENCY: -nan cycles
L1I RQ	ACCESS:    7075258	FORWARD:          0	MERGED:    2290070	TO_CACHE:    4785188

BTB TOTAL     ACCESS:    3283963  HIT:    3283955  MISS:          8  HIT %:    99.9998  MISS %: 0.000243608   MPKI: 0.00032
BTB BRANCH_DIRECT_JUMP	ACCESS:     568310  HIT:     568308  MISS:          2
BTB BRANCH_INDIRECT	ACCESS:          0  HIT:          0  MISS:          0
BTB BRANCH_CONDITIONAL	ACCESS:    1606985  HIT:    1606981  MISS:          4
BTB BRANCH_DIRECT_CALL	ACCESS:     554334  HIT:     554333  MISS:          1
BTB BRANCH_INDIRECT_CALL	ACCESS:          0  HIT:          0  MISS:          0
BTB BRANCH_RETURN	ACCESS:     554334  HIT:     554333  MISS:          1
BTB BRANCH_OTHER ACCESS:          0  HIT:          0  MISS:          0

L2C TOTAL     ACCESS:    2789156  HIT:    1727690  MISS:    1061466  HIT %:    61.9431  MISS %:    38.0569   MPKI: 42.4586
L2C LOAD      ACCESS:    1135919  HIT:     409987  MISS:     725932  HIT %:     36.093  MISS %:     63.907   MPKI: 29.0373
L2C DATA LOAD MPKI: 29.0373
L2C INSTRUCTION LOAD MPKI: 0
L2C RFO       ACCESS:      69364  HIT:      38926  MISS:      30438  HIT %:    56.1184  MISS %:    43.8816   MPKI: 1.21752
L2C WRITEBACK ACCESS:     554349  HIT:     554349  MISS:          0  HIT %:        100  MISS %:          0   MPKI: 0
L2C LOAD TRANSLATION ACCESS:     602708  HIT:     408258  MISS:     194450  HIT %:    67.7373  MISS %:    32.2627   MPKI: 7.778
L2C PREFETCH TRANSLATION ACCESS:     426816  HIT:     316170  MISS:     110646  HIT %:    74.0764  MISS %:    25.9236   MPKI: 4.42584
L2C PREFETCH  REQUESTED:          0  ISSUED:          0  USEFUL:      85186  USELESS:      25497
L2C USEFUL LOAD PREFETCHES:      85186 PREFETCH ISSUED TO LOWER LEVEL:          0  ACCURACY: inf
L2C TIMELY PREFETCHES:      85186 LATE PREFETCHES: 0 DROPPED PREFETCHES: 0
L2C PREFETCHES SAME FILL-ORIGIN LEVEL: 0 DIFFERENT FILL-ORIGIN LEVEL: 0
L2C AVERAGE MISS LATENCY: 135.172 cycles
L2C RQ	ACCESS:    2234809	FORWARD:          0	MERGED:          0	TO_CACHE:    2234809
L2C WQ	ACCESS:     554349	FORWARD:          0	MERGED:          0	TO_CACHE:     554349

L2C Instructions Evicting Data 0
L2C Translations Evicting Data 183251
L2C Data Evicting Data 572686
L2C Instructions Evicting Instructions 0
L2C Translations Evicting Instructions 0
L2C Data Evicting Instructions 0
L2C Instructions Evicting Translations 0
L2C Translations Evicting Translations 121845
L2C Data Evicting Translations 183684
L2C Dense regions hint from L2: 0
PSCL5 TOTAL     ACCESS:     926520  HIT:     926520  MISS:          0  HIT %:        100  MISS %:          0   MPKI: 0
PSCL5 LOAD TRANSLATION ACCESS:     554198  HIT:     554198  MISS:          0  HIT %:        100  MISS %:          0   MPKI: 0
PSCL5 PREFETCH TRANSLATION ACCESS:     372322  HIT:     372322  MISS:          0  HIT %:        100  MISS %:          0   MPKI: 0
PSCL5 PREFETCH  REQUESTED:          0  ISSUED:          0  USEFUL:          0  USELESS:          0
PSCL5 USEFUL LOAD PREFETCHES:          0 PREFETCH ISSUED TO LOWER LEVEL:          0  ACCURACY: -nan
PSCL5 TIMELY PREFETCHES:          0 LATE PREFETCHES: 0 DROPPED PREFETCHES: 0
PSCL5 PREFETCHES SAME FILL-ORIGIN LEVEL: 0 DIFFERENT FILL-ORIGIN LEVEL: 0

PSCL4 TOTAL     ACCESS:     926520  HIT:     926520  MISS:          0  HIT %:        100  MISS %:          0   MPKI: 0
PSCL4 LOAD TRANSLATION ACCESS:     554198  HIT:     554198  MISS:          0  HIT %:        100  MISS %:          0   MPKI: 0
PSCL4 PREFETCH TRANSLATION ACCESS:     372322  HIT:     372322  MISS:          0  HIT %:        100  MISS %:          0   MPKI: 0
PSCL4 PREFETCH  REQUESTED:          0  ISSUED:          0  USEFUL:          0  USELESS:          0
PSCL4 USEFUL LOAD PREFETCHES:          0 PREFETCH ISSUED TO LOWER LEVEL:          0  ACCURACY: -nan
PSCL4 TIMELY PREFETCHES:          0 LATE PREFETCHES: 0 DROPPED PREFETCHES: 0
PSCL4 PREFETCHES SAME FILL-ORIGIN LEVEL: 0 DIFFERENT FILL-ORIGIN LEVEL: 0

PSCL3 TOTAL     ACCESS:     924571  HIT:     924571  MISS:          0  HIT %:        100  MISS %:          0   MPKI: 0
PSCL3 LOAD TRANSLATION ACCESS:     554198  HIT:     554198  MISS:          0  HIT %:        100  MISS %:          0   MPKI: 0
PSCL3 PREFETCH TRANSLATION ACCESS:     370373  HIT:     370373  MISS:          0  HIT %:        100  MISS %:          0   MPKI: 0
PSCL3 PREFETCH  REQUESTED:          0  ISSUED:          0  USEFUL:          0  USELESS:          0
PSCL3 USEFUL LOAD PREFETCHES:          0 PREFETCH ISSUED TO LOWER LEVEL:          0  ACCURACY: -nan
PSCL3 TIMELY PREFETCHES:          0 LATE PREFETCHES: 0 DROPPED PREFETCHES: 0
PSCL3 PREFETCHES SAME FILL-ORIGIN LEVEL: 0 DIFFERENT FILL-ORIGIN LEVEL: 0

PSCL2 TOTAL     ACCESS:     895897  HIT:     818233  MISS:      77664  HIT %:    91.3311  MISS %:    8.66885   MPKI: 3.10656
PSCL2 LOAD TRANSLATION ACCESS:     583352  HIT:     505688  MISS:      77664  HIT %:    86.6866  MISS %:    13.3134   MPKI: 3.10656
PSCL2 PREFETCH TRANSLATION ACCESS:     312545  HIT:     312545  MISS:          0  HIT %:        100  MISS %:          0   MPKI: 0
PSCL2 PREFETCH  REQUESTED:          0  ISSUED:          0  USEFUL:          0  USELESS:          0
PSCL2 USEFUL LOAD PREFETCHES:          0 PREFETCH ISSUED TO LOWER LEVEL:          0  ACCURACY: -nan
PSCL2 TIMELY PREFETCHES:          0 LATE PREFETCHES: 0 DROPPED PREFETCHES: 0
PSCL2 PREFETCHES SAME FILL-ORIGIN LEVEL: 0 DIFFERENT FILL-ORIGIN LEVEL: 0

LLC TOTAL     ACCESS:    1615944  HIT:     962177  MISS:     653767  HIT %:    59.5427  MISS %:    40.4573   MPKI: 26.1507
LLC LOAD      ACCESS:     725932  HIT:      84412  MISS:     641520  HIT %:    11.6281  MISS %:    88.3719   MPKI: 25.6608
LLC RFO       ACCESS:      30438  HIT:      30434  MISS:          4  HIT %:    99.9869  MISS %:  0.0131415   MPKI: 0.00016
LLC WRITEBACK ACCESS:     554478  HIT:     554478  MISS:          0  HIT %:        100  MISS %:          0   MPKI: 0
LLC LOAD TRANSLATION ACCESS:     194450  HIT:     188780  MISS:       5670  HIT %:    97.0841  MISS %:    2.91592   MPKI: 0.2268
LLC PREFETCH TRANSLATION ACCESS:     110646  HIT:     104073  MISS:       6573  HIT %:    94.0594  MISS %:    5.94057   MPKI: 0.26292
LLC PREFETCH  REQUESTED:          0  ISSUED:          0  USEFUL:       4912  USELESS:       1736
LLC USEFUL LOAD PREFETCHES:       4912 PREFETCH ISSUED TO LOWER LEVEL:          0  ACCURACY: inf
LLC TIMELY PREFETCHES:       4912 LATE PREFETCHES: 0 DROPPED PREFETCHES: 0
LLC PREFETCHES SAME FILL-ORIGIN LEVEL: 0 DIFFERENT FILL-ORIGIN LEVEL: 0
LLC AVERAGE MISS LATENCY: 170.562 cycles
LLC RQ	ACCESS:    1061467	FORWARD:          0	MERGED:          0	TO_CACHE:    1061467
LLC WQ	ACCESS:     554478	FORWARD:          0	MERGED:          0	TO_CACHE:     554478

LLC Dense regions hint to LLC: 0

RAW hits: 485848
Loads Generated: 6650538
Loads sent to L1D: 6164685
Stores Generated: 1108672
Stores sent to L1D: 1108674
Major fault: 0 Minor fault: 23116
Allocated PAGES: 23116
CPU 0 STLB arbitrary stride prefetcher final stats
Degree: 8

DRAM Statistics
 CHANNEL 0
 RQ ROW_BUFFER_HIT:        872  ROW_BUFFER_MISS:     652895
 DBUS_CONGESTED:          6
 WQ ROW_BUFFER_HIT:     210824  ROW_BUFFER_MISS:     343379  FULL:          0

 AVG_CONGESTED_CYCLE: 4
 All warmup complete: 2
Channel 0 Bank busy for read cycles: 0
Channel 0 Bank busy for write cycles: 0
Channel 0
Rank 0
0banks busy for read cycles: 2500027
0banks busy for write cycles: 58365
1banks busy for read cycles: 19757737
1banks busy for write cycles: 4488818
2banks busy for read cycles: 13899366
2banks busy for write cycles: 6733639
3banks busy for read cycles: 11650994
3banks busy for write cycles: 9781649
4banks busy for read cycles: 3812060
4banks busy for write cycles: 8205868
5banks busy for read cycles: 43649
5banks busy for write cycles: 3294237
6banks busy for read cycles: 383
6banks busy for write cycles: 1354645
7banks busy for read cycles: 0
7banks busy for write cycles: 676896
8banks busy for read cycles: 0
8banks busy for write cycles: 562925

CPU 0 Branch Prediction Accuracy: 99.9685% MPKI: 0.04912 Average ROB Occupancy at Mispredict: 155.537
Branch types
NOT_BRANCH: 21105636 84.4225%
BRANCH_DIRECT_JUMP: 568310 2.27324%
BRANCH_INDIRECT: 0 0%
BRANCH_CONDITIONAL: 2217336 8.86934%
BRANCH_DIRECT_CALL: 554334 2.21734%
BRANCH_INDIRECT_CALL: 0 0%
BRANCH_RETURN: 554334 2.21734%
BRANCH_OTHER: 0 0%

DRAM PAGES: 1048576
Allocated PAGES: 23116
