
*** ChampSim Multicore Out-of-Order Simulator ***

Warmup Instructions: 25000000
Simulation Instructions: 25000000
Number of CPUs: 1
LLC sets: 2048
LLC ways: 16
Off-chip DRAM Size: 4096 MB Channels: 1 Width: 64-bit Data Rate: 6400 MT/s
CPU 0 runs ../given/traces/trace1.champsimtrace.xz
.xz
CPU 0 Bimodal branch predictor
BTB has LRU replacement policy
ITLB has LRU replacement policy
DTLB has LRU replacement policy
CPU 0 STLB arbitrary stride prefetcher
STLB has LRU replacement policy
L1I has LRU replacement policy
L1D has LRU replacement policy
L2C has LRU replacement policy
LLC has LRU replacement policy
Heartbeat CPU 0 instructions: 10000003 cycles: 2821898 heartbeat IPC: 3.54372 cumulative IPC: 3.54372 (Simulation time: 0 hr 0 min 52 sec) 
Heartbeat CPU 0 instructions: 20000003 cycles: 5633911 heartbeat IPC: 3.55617 cumulative IPC: 3.54993 (Simulation time: 0 hr 1 min 43 sec) 

Warmup complete CPU 0 instructions: 25000004 cycles: 7045152 (Simulation time: 0 hr 2 min 7 sec) 

Heartbeat CPU 0 instructions: 30000002 cycles: 23795727 heartbeat IPC: 0.550606 cumulative IPC: 0.298497 (Simulation time: 0 hr 3 min 6 sec) 
Heartbeat CPU 0 instructions: 40000001 cycles: 59680132 heartbeat IPC: 0.278673 cumulative IPC: 0.284982 (Simulation time: 0 hr 5 min 9 sec) 
Heartbeat CPU 0 instructions: 50000000 cycles: 94382413 heartbeat IPC: 0.288165 cumulative IPC: 0.286247 (Simulation time: 0 hr 7 min 10 sec) 
Finished CPU 0 instructions: 25000000 cycles: 87337263 cumulative IPC: 0.286247 (Simulation time: 0 hr 7 min 10 sec) 

ChampSim completed all CPUs

Region of Interest Statistics

CPU 0 cumulative IPC: 0.286247 instructions: 25000000 cycles: 87337263
ITLB TOTAL     ACCESS:    4438752  HIT:    4438752  MISS:          0  HIT %:        100  MISS %:          0   MPKI: 0
ITLB LOAD TRANSLATION ACCESS:    4438752  HIT:    4438752  MISS:          0  HIT %:        100  MISS %:          0   MPKI: 0
ITLB PREFETCH  REQUESTED:          0  ISSUED:          0  USEFUL:          0  USELESS:          0
ITLB USEFUL LOAD PREFETCHES:          0 PREFETCH ISSUED TO LOWER LEVEL:          0  ACCURACY: -nan
ITLB TIMELY PREFETCHES:          0 LATE PREFETCHES: 0 DROPPED PREFETCHES: 0
ITLB PREFETCHES SAME FILL-ORIGIN LEVEL: 0 DIFFERENT FILL-ORIGIN LEVEL: 0
ITLB AVERAGE MISS LATENCY: -nan cycles
ITLB RQ	ACCESS:    4791321	FORWARD:          0	MERGED:     352569	TO_CACHE:    4438752

DTLB TOTAL     ACCESS:    3715148  HIT:    3052243  MISS:     662905  HIT %:    82.1567  MISS %:    17.8433   MPKI: 26.5162
DTLB LOAD TRANSLATION ACCESS:    3715148  HIT:    3052243  MISS:     662905  HIT %:    82.1567  MISS %:    17.8433   MPKI: 26.5162
DTLB PREFETCH  REQUESTED:          0  ISSUED:          0  USEFUL:          0  USELESS:          0
DTLB USEFUL LOAD PREFETCHES:          0 PREFETCH ISSUED TO LOWER LEVEL:          0  ACCURACY: -nan
DTLB TIMELY PREFETCHES:          0 LATE PREFETCHES: 0 DROPPED PREFETCHES: 0
DTLB PREFETCHES SAME FILL-ORIGIN LEVEL: 0 DIFFERENT FILL-ORIGIN LEVEL: 0
DTLB AVERAGE MISS LATENCY: 49.7993 cycles
DTLB RQ	ACCESS:    4314943	FORWARD:          0	MERGED:     592267	TO_CACHE:    3722676

STLB TOTAL     ACCESS:     943127  HIT:     230260  MISS:     712867  HIT %:    24.4145  MISS %:    75.5855   MPKI: 28.5147
STLB LOAD TRANSLATION ACCESS:     662905  HIT:     119915  MISS:     542990  HIT %:    18.0893  MISS %:    81.9107   MPKI: 21.7196
STLB PREFETCH TRANSLATION ACCESS:     280222  HIT:     110345  MISS:     169877  HIT %:    39.3777  MISS %:    60.6223   MPKI: 6.79508
STLB PREFETCH  REQUESTED:     318418  ISSUED:     318418  USEFUL:      19976  USELESS:     150136
STLB USEFUL LOAD PREFETCHES:      19976 PREFETCH ISSUED TO LOWER LEVEL:     184892  ACCURACY: 10.8041
STLB TIMELY PREFETCHES:      19976 LATE PREFETCHES: 6137 DROPPED PREFETCHES: 8879
STLB PREFETCHES SAME FILL-ORIGIN LEVEL: 184892 DIFFERENT FILL-ORIGIN LEVEL: 0
STLB AVERAGE MISS LATENCY: 61.8691 cycles
STLB RQ	ACCESS:     662908	FORWARD:          0	MERGED:          0	TO_CACHE:     662908
STLB PQ	ACCESS:     318418	FORWARD:          0	MERGED:       8516	TO_CACHE:     309902

STLB Hit, L1D data hit: 0
STLB Hit, L2C data hit: 0
STLB Hit, LLC data hit: 0
STLB Hit, LLC data miss: 0
STLB STLB hints to L2: 0
L1D TOTAL     ACCESS:    4293973  HIT:    3088701  MISS:    1205272  HIT %:    71.9311  MISS %:    28.0689   MPKI: 48.2109
L1D LOAD      ACCESS:    3185308  HIT:    2049400  MISS:    1135908  HIT %:    64.3391  MISS %:    35.6609   MPKI: 45.4363
L1D RFO       ACCESS:    1108665  HIT:    1039301  MISS:      69364  HIT %:    93.7435  MISS %:    6.25653   MPKI: 2.77456
L1D PREFETCH  REQUESTED:          0  ISSUED:          0  USEFUL:          0  USELESS:          0
L1D USEFUL LOAD PREFETCHES:          0 PREFETCH ISSUED TO LOWER LEVEL:          0  ACCURACY: -nan
L1D TIMELY PREFETCHES:          0 LATE PREFETCHES: 0 DROPPED PREFETCHES: 0
L1D PREFETCHES SAME FILL-ORIGIN LEVEL: 0 DIFFERENT FILL-ORIGIN LEVEL: 0
L1D AVERAGE MISS LATENCY: 124.786 cycles
L1D RQ	ACCESS:    6160605	FORWARD:          0	MERGED:    2890733	TO_CACHE:    3206276
L1D WQ	ACCESS:    1108674	FORWARD:      63596	MERGED:          7	TO_CACHE:    1108667

L1D UNIQUE REGIONS ACCESSED: 0
L1D REGIONS CONFLICTS: 0
L1D Cross Page Prefetch Requests: 0
L1D Same Page Prefetch Requests: 0
L1D ROI Sum of L1D PQ occupancy: 0
L1D PREFETCHES PUSHED FROM L2C: 0
L1I TOTAL     ACCESS:    4791319  HIT:    4791319  MISS:          0  HIT %:        100  MISS %:          0   MPKI: 0
L1I LOAD      ACCESS:    4791319  HIT:    4791319  MISS:          0  HIT %:        100  MISS %:          0   MPKI: 0
L1I PREFETCH  REQUESTED:          0  ISSUED:          0  USEFUL:          0  USELESS:          0
L1I USEFUL LOAD PREFETCHES:          0 PREFETCH ISSUED TO LOWER LEVEL:          0  ACCURACY: -nan
L1I TIMELY PREFETCHES:          0 LATE PREFETCHES: 0 DROPPED PREFETCHES: 0
L1I PREFETCHES SAME FILL-ORIGIN LEVEL: 0 DIFFERENT FILL-ORIGIN LEVEL: 0
L1I AVERAGE MISS LATENCY: -nan cycles
L1I RQ	ACCESS:    7094357	FORWARD:          0	MERGED:    2303036	TO_CACHE:    4791321

BTB TOTAL     ACCESS:    3283965  HIT:    3283957  MISS:          8  HIT %:    99.9998  MISS %: 0.000243608   MPKI: 0.00032
BTB BRANCH_DIRECT_JUMP	ACCESS:     568311  HIT:     568309  MISS:          2
BTB BRANCH_INDIRECT	ACCESS:          0  HIT:          0  MISS:          0
BTB BRANCH_CONDITIONAL	ACCESS:    1606986  HIT:    1606982  MISS:          4
BTB BRANCH_DIRECT_CALL	ACCESS:     554334  HIT:     554333  MISS:          1
BTB BRANCH_INDIRECT_CALL	ACCESS:          0  HIT:          0  MISS:          0
BTB BRANCH_RETURN	ACCESS:     554334  HIT:     554333  MISS:          1
BTB BRANCH_OTHER ACCESS:          0  HIT:          0  MISS:          0

L2C TOTAL     ACCESS:    2564278  HIT:    1551394  MISS:    1012884  HIT %:    60.5002  MISS %:    39.4998   MPKI: 40.5154
L2C LOAD      ACCESS:    1135908  HIT:     415121  MISS:     720787  HIT %:    36.5453  MISS %:    63.4547   MPKI: 28.8315
L2C DATA LOAD MPKI: 28.8315
L2C INSTRUCTION LOAD MPKI: 0
L2C RFO       ACCESS:      69364  HIT:      41126  MISS:      28238  HIT %:    59.2901  MISS %:    40.7099   MPKI: 1.12952
L2C WRITEBACK ACCESS:     554350  HIT:     554350  MISS:          0  HIT %:        100  MISS %:          0   MPKI: 0
L2C LOAD TRANSLATION ACCESS:     594834  HIT:     393856  MISS:     200978  HIT %:    66.2128  MISS %:    33.7872   MPKI: 8.03912
L2C PREFETCH TRANSLATION ACCESS:     209822  HIT:     146941  MISS:      62881  HIT %:    70.0313  MISS %:    29.9687   MPKI: 2.51524
L2C PREFETCH  REQUESTED:          0  ISSUED:          0  USEFUL:      45220  USELESS:      17722
L2C USEFUL LOAD PREFETCHES:      45220 PREFETCH ISSUED TO LOWER LEVEL:          0  ACCURACY: inf
L2C TIMELY PREFETCHES:      45220 LATE PREFETCHES: 0 DROPPED PREFETCHES: 0
L2C PREFETCHES SAME FILL-ORIGIN LEVEL: 0 DIFFERENT FILL-ORIGIN LEVEL: 0
L2C AVERAGE MISS LATENCY: 139.718 cycles
L2C RQ	ACCESS:    2009928	FORWARD:          0	MERGED:          0	TO_CACHE:    2009928
L2C WQ	ACCESS:     554350	FORWARD:          0	MERGED:          0	TO_CACHE:     554350

L2C Instructions Evicting Data 0
L2C Translations Evicting Data 156956
L2C Data Evicting Data 591940
L2C Instructions Evicting Instructions 0
L2C Translations Evicting Instructions 0
L2C Data Evicting Instructions 0
L2C Instructions Evicting Translations 0
L2C Translations Evicting Translations 106903
L2C Data Evicting Translations 157085
L2C Dense regions hint from L2: 0
PSCL5 TOTAL     ACCESS:     721746  HIT:     721746  MISS:          0  HIT %:        100  MISS %:          0   MPKI: 0
PSCL5 LOAD TRANSLATION ACCESS:     536854  HIT:     536854  MISS:          0  HIT %:        100  MISS %:          0   MPKI: 0
PSCL5 PREFETCH TRANSLATION ACCESS:     184892  HIT:     184892  MISS:          0  HIT %:        100  MISS %:          0   MPKI: 0
PSCL5 PREFETCH  REQUESTED:          0  ISSUED:          0  USEFUL:          0  USELESS:          0
PSCL5 USEFUL LOAD PREFETCHES:          0 PREFETCH ISSUED TO LOWER LEVEL:          0  ACCURACY: -nan
PSCL5 TIMELY PREFETCHES:          0 LATE PREFETCHES: 0 DROPPED PREFETCHES: 0
PSCL5 PREFETCHES SAME FILL-ORIGIN LEVEL: 0 DIFFERENT FILL-ORIGIN LEVEL: 0

PSCL4 TOTAL     ACCESS:     721746  HIT:     721746  MISS:          0  HIT %:        100  MISS %:          0   MPKI: 0
PSCL4 LOAD TRANSLATION ACCESS:     536854  HIT:     536854  MISS:          0  HIT %:        100  MISS %:          0   MPKI: 0
PSCL4 PREFETCH TRANSLATION ACCESS:     184892  HIT:     184892  MISS:          0  HIT %:        100  MISS %:          0   MPKI: 0
PSCL4 PREFETCH  REQUESTED:          0  ISSUED:          0  USEFUL:          0  USELESS:          0
PSCL4 USEFUL LOAD PREFETCHES:          0 PREFETCH ISSUED TO LOWER LEVEL:          0  ACCURACY: -nan
PSCL4 TIMELY PREFETCHES:          0 LATE PREFETCHES: 0 DROPPED PREFETCHES: 0
PSCL4 PREFETCHES SAME FILL-ORIGIN LEVEL: 0 DIFFERENT FILL-ORIGIN LEVEL: 0

PSCL3 TOTAL     ACCESS:     721746  HIT:     721746  MISS:          0  HIT %:        100  MISS %:          0   MPKI: 0
PSCL3 LOAD TRANSLATION ACCESS:     536854  HIT:     536854  MISS:          0  HIT %:        100  MISS %:          0   MPKI: 0
PSCL3 PREFETCH TRANSLATION ACCESS:     184892  HIT:     184892  MISS:          0  HIT %:        100  MISS %:          0   MPKI: 0
PSCL3 PREFETCH  REQUESTED:          0  ISSUED:          0  USEFUL:          0  USELESS:          0
PSCL3 USEFUL LOAD PREFETCHES:          0 PREFETCH ISSUED TO LOWER LEVEL:          0  ACCURACY: -nan
PSCL3 TIMELY PREFETCHES:          0 LATE PREFETCHES: 0 DROPPED PREFETCHES: 0
PSCL3 PREFETCHES SAME FILL-ORIGIN LEVEL: 0 DIFFERENT FILL-ORIGIN LEVEL: 0

PSCL2 TOTAL     ACCESS:     716360  HIT:     638029  MISS:      78331  HIT %:    89.0654  MISS %:    10.9346   MPKI: 3.13324
PSCL2 LOAD TRANSLATION ACCESS:     557204  HIT:     478873  MISS:      78331  HIT %:    85.9421  MISS %:    14.0579   MPKI: 3.13324
PSCL2 PREFETCH TRANSLATION ACCESS:     159156  HIT:     159156  MISS:          0  HIT %:        100  MISS %:          0   MPKI: 0
PSCL2 PREFETCH  REQUESTED:          0  ISSUED:          0  USEFUL:          0  USELESS:          0
PSCL2 USEFUL LOAD PREFETCHES:          0 PREFETCH ISSUED TO LOWER LEVEL:          0  ACCURACY: -nan
PSCL2 TIMELY PREFETCHES:          0 LATE PREFETCHES: 0 DROPPED PREFETCHES: 0
PSCL2 PREFETCHES SAME FILL-ORIGIN LEVEL: 0 DIFFERENT FILL-ORIGIN LEVEL: 0

LLC TOTAL     ACCESS:    1567607  HIT:     916789  MISS:     650818  HIT %:    58.4833  MISS %:    41.5167   MPKI: 26.0327
LLC LOAD      ACCESS:     720787  HIT:      79306  MISS:     641481  HIT %:    11.0027  MISS %:    88.9973   MPKI: 25.6592
LLC RFO       ACCESS:      28238  HIT:      28234  MISS:          4  HIT %:    99.9858  MISS %:  0.0141653   MPKI: 0.00016
LLC WRITEBACK ACCESS:     554723  HIT:     554723  MISS:          0  HIT %:        100  MISS %:          0   MPKI: 0
LLC LOAD TRANSLATION ACCESS:     200978  HIT:     194535  MISS:       6443  HIT %:    96.7942  MISS %:    3.20582   MPKI: 0.25772
LLC PREFETCH TRANSLATION ACCESS:      62881  HIT:      59991  MISS:       2890  HIT %:     95.404  MISS %:    4.59598   MPKI: 0.1156
LLC PREFETCH  REQUESTED:          0  ISSUED:          0  USEFUL:       1926  USELESS:       1030
LLC USEFUL LOAD PREFETCHES:       1926 PREFETCH ISSUED TO LOWER LEVEL:          0  ACCURACY: inf
LLC TIMELY PREFETCHES:       1926 LATE PREFETCHES: 0 DROPPED PREFETCHES: 0
LLC PREFETCHES SAME FILL-ORIGIN LEVEL: 0 DIFFERENT FILL-ORIGIN LEVEL: 0
LLC AVERAGE MISS LATENCY: 170.558 cycles
LLC RQ	ACCESS:    1012884	FORWARD:          0	MERGED:          0	TO_CACHE:    1012884
LLC WQ	ACCESS:     554723	FORWARD:          0	MERGED:          0	TO_CACHE:     554723

LLC Dense regions hint to LLC: 0

RAW hits: 489927
Loads Generated: 6650535
Loads sent to L1D: 6160605
Stores Generated: 1108672
Stores sent to L1D: 1108674
Major fault: 0 Minor fault: 23115
Allocated PAGES: 23115
CPU 0 STLB arbitrary stride prefetcher final stats
Degree: 2

DRAM Statistics
 CHANNEL 0
 RQ ROW_BUFFER_HIT:        826  ROW_BUFFER_MISS:     649991
 DBUS_CONGESTED:          4
 WQ ROW_BUFFER_HIT:     215446  ROW_BUFFER_MISS:     338976  FULL:          0

 AVG_CONGESTED_CYCLE: 4
 All warmup complete: 2
Channel 0 Bank busy for read cycles: 0
Channel 0 Bank busy for write cycles: 0
Channel 0
Rank 0
0banks busy for read cycles: 2501783
0banks busy for write cycles: 56317
1banks busy for read cycles: 20523564
1banks busy for write cycles: 4442584
2banks busy for read cycles: 14182037
2banks busy for write cycles: 6508712
3banks busy for read cycles: 11335676
3banks busy for write cycles: 9748431
4banks busy for read cycles: 3613888
4banks busy for write cycles: 8410830
5banks busy for read cycles: 37836
5banks busy for write cycles: 3372931
6banks busy for read cycles: 146
6banks busy for write cycles: 1382716
7banks busy for read cycles: 0
7banks busy for write cycles: 676855
8banks busy for read cycles: 0
8banks busy for write cycles: 542958

CPU 0 Branch Prediction Accuracy: 99.9685% MPKI: 0.04912 Average ROB Occupancy at Mispredict: 155.887
Branch types
NOT_BRANCH: 21105652 84.4226%
BRANCH_DIRECT_JUMP: 568311 2.27324%
BRANCH_INDIRECT: 0 0%
BRANCH_CONDITIONAL: 2217337 8.86935%
BRANCH_DIRECT_CALL: 554334 2.21734%
BRANCH_INDIRECT_CALL: 0 0%
BRANCH_RETURN: 554334 2.21734%
BRANCH_OTHER: 0 0%

DRAM PAGES: 1048576
Allocated PAGES: 23115
