
*** ChampSim Multicore Out-of-Order Simulator ***

Warmup Instructions: 25000000
Simulation Instructions: 25000000
Number of CPUs: 1
LLC sets: 2048
LLC ways: 16
Off-chip DRAM Size: 4096 MB Channels: 1 Width: 64-bit Data Rate: 6400 MT/s
CPU 0 runs ../given/traces/trace1.champsimtrace.xz
.xz
CPU 0 Bimodal branch predictor
BTB has LRU replacement policy
ITLB has LRU replacement policy
DTLB has LRU replacement policy
CPU 0 STLB arbitrary stride prefetcher
STLB has LRU replacement policy
L1I has LRU replacement policy
L1D has LRU replacement policy
L2C has LRU replacement policy
LLC has LRU replacement policy
Heartbeat CPU 0 instructions: 10000003 cycles: 2820391 heartbeat IPC: 3.54561 cumulative IPC: 3.54561 (Simulation time: 0 hr 0 min 49 sec) 
Heartbeat CPU 0 instructions: 20000003 cycles: 5629615 heartbeat IPC: 3.5597 cumulative IPC: 3.55264 (Simulation time: 0 hr 1 min 39 sec) 

Warmup complete CPU 0 instructions: 25000004 cycles: 7039837 (Simulation time: 0 hr 2 min 4 sec) 

Heartbeat CPU 0 instructions: 30000002 cycles: 23467930 heartbeat IPC: 0.560591 cumulative IPC: 0.304357 (Simulation time: 0 hr 3 min 3 sec) 
Heartbeat CPU 0 instructions: 40000001 cycles: 58649144 heartbeat IPC: 0.284243 cumulative IPC: 0.290645 (Simulation time: 0 hr 5 min 3 sec) 
Heartbeat CPU 0 instructions: 50000000 cycles: 92623084 heartbeat IPC: 0.294343 cumulative IPC: 0.292113 (Simulation time: 0 hr 7 min 1 sec) 
Finished CPU 0 instructions: 25000000 cycles: 85583249 cumulative IPC: 0.292113 (Simulation time: 0 hr 7 min 1 sec) 

ChampSim completed all CPUs

Region of Interest Statistics

CPU 0 cumulative IPC: 0.292113 instructions: 25000000 cycles: 85583249
ITLB TOTAL     ACCESS:    4434759  HIT:    4434759  MISS:          0  HIT %:        100  MISS %:          0   MPKI: 0
ITLB LOAD TRANSLATION ACCESS:    4434759  HIT:    4434759  MISS:          0  HIT %:        100  MISS %:          0   MPKI: 0
ITLB PREFETCH  REQUESTED:          0  ISSUED:          0  USEFUL:          0  USELESS:          0
ITLB USEFUL LOAD PREFETCHES:          0 PREFETCH ISSUED TO LOWER LEVEL:          0  ACCURACY: -nan
ITLB TIMELY PREFETCHES:          0 LATE PREFETCHES: 0 DROPPED PREFETCHES: 0
ITLB PREFETCHES SAME FILL-ORIGIN LEVEL: 0 DIFFERENT FILL-ORIGIN LEVEL: 0
ITLB AVERAGE MISS LATENCY: -nan cycles
ITLB RQ	ACCESS:    4788703	FORWARD:          0	MERGED:     353944	TO_CACHE:    4434759

DTLB TOTAL     ACCESS:    3709131  HIT:    3046200  MISS:     662931  HIT %:    82.1271  MISS %:    17.8729   MPKI: 26.5172
DTLB LOAD TRANSLATION ACCESS:    3709131  HIT:    3046200  MISS:     662931  HIT %:    82.1271  MISS %:    17.8729   MPKI: 26.5172
DTLB PREFETCH  REQUESTED:          0  ISSUED:          0  USEFUL:          0  USELESS:          0
DTLB USEFUL LOAD PREFETCHES:          0 PREFETCH ISSUED TO LOWER LEVEL:          0  ACCURACY: -nan
DTLB TIMELY PREFETCHES:          0 LATE PREFETCHES: 0 DROPPED PREFETCHES: 0
DTLB PREFETCHES SAME FILL-ORIGIN LEVEL: 0 DIFFERENT FILL-ORIGIN LEVEL: 0
DTLB AVERAGE MISS LATENCY: 45.248 cycles
DTLB RQ	ACCESS:    4309086	FORWARD:          0	MERGED:     591436	TO_CACHE:    3717650

STLB TOTAL     ACCESS:    1244558  HIT:     348823  MISS:     895735  HIT %:    28.0279  MISS %:    71.9721   MPKI: 35.8294
STLB LOAD TRANSLATION ACCESS:     662931  HIT:     121497  MISS:     541434  HIT %:    18.3272  MISS %:    81.6728   MPKI: 21.6574
STLB PREFETCH TRANSLATION ACCESS:     581627  HIT:     227326  MISS:     354301  HIT %:    39.0845  MISS %:    60.9155   MPKI: 14.172
STLB PREFETCH  REQUESTED:     668872  ISSUED:     668845  USEFUL:      23040  USELESS:     331528
STLB USEFUL LOAD PREFETCHES:      23040 PREFETCH ISSUED TO LOWER LEVEL:     383342  ACCURACY: 6.0103
STLB TIMELY PREFETCHES:      23040 LATE PREFETCHES: 6605 DROPPED PREFETCHES: 22438
STLB PREFETCHES SAME FILL-ORIGIN LEVEL: 383342 DIFFERENT FILL-ORIGIN LEVEL: 0
STLB AVERAGE MISS LATENCY: 74.77 cycles
STLB RQ	ACCESS:     662934	FORWARD:          0	MERGED:          0	TO_CACHE:     662934
STLB PQ	ACCESS:     668845	FORWARD:          0	MERGED:      28836	TO_CACHE:     640009

STLB Hit, L1D data hit: 0
STLB Hit, L2C data hit: 0
STLB Hit, LLC data hit: 0
STLB Hit, LLC data miss: 0
STLB STLB hints to L2: 0
L1D TOTAL     ACCESS:    4291165  HIT:    3085914  MISS:    1205251  HIT %:    71.9132  MISS %:    28.0868   MPKI: 48.21
L1D LOAD      ACCESS:    3182500  HIT:    2046613  MISS:    1135887  HIT %:    64.3083  MISS %:    35.6917   MPKI: 45.4355
L1D RFO       ACCESS:    1108665  HIT:    1039301  MISS:      69364  HIT %:    93.7435  MISS %:    6.25653   MPKI: 2.77456
L1D PREFETCH  REQUESTED:          0  ISSUED:          0  USEFUL:          0  USELESS:          0
L1D USEFUL LOAD PREFETCHES:          0 PREFETCH ISSUED TO LOWER LEVEL:          0  ACCURACY: -nan
L1D TIMELY PREFETCHES:          0 LATE PREFETCHES: 0 DROPPED PREFETCHES: 0
L1D PREFETCHES SAME FILL-ORIGIN LEVEL: 0 DIFFERENT FILL-ORIGIN LEVEL: 0
L1D AVERAGE MISS LATENCY: 124.944 cycles
L1D RQ	ACCESS:    6163508	FORWARD:          0	MERGED:    2896589	TO_CACHE:    3200419
L1D WQ	ACCESS:    1108674	FORWARD:      66500	MERGED:          7	TO_CACHE:    1108667

L1D UNIQUE REGIONS ACCESSED: 0
L1D REGIONS CONFLICTS: 0
L1D Cross Page Prefetch Requests: 0
L1D Same Page Prefetch Requests: 0
L1D ROI Sum of L1D PQ occupancy: 0
L1D PREFETCHES PUSHED FROM L2C: 0
L1I TOTAL     ACCESS:    4788701  HIT:    4788701  MISS:          0  HIT %:        100  MISS %:          0   MPKI: 0
L1I LOAD      ACCESS:    4788701  HIT:    4788701  MISS:          0  HIT %:        100  MISS %:          0   MPKI: 0
L1I PREFETCH  REQUESTED:          0  ISSUED:          0  USEFUL:          0  USELESS:          0
L1I USEFUL LOAD PREFETCHES:          0 PREFETCH ISSUED TO LOWER LEVEL:          0  ACCURACY: -nan
L1I TIMELY PREFETCHES:          0 LATE PREFETCHES: 0 DROPPED PREFETCHES: 0
L1I PREFETCHES SAME FILL-ORIGIN LEVEL: 0 DIFFERENT FILL-ORIGIN LEVEL: 0
L1I AVERAGE MISS LATENCY: -nan cycles
L1I RQ	ACCESS:    7079980	FORWARD:          0	MERGED:    2291277	TO_CACHE:    4788703

BTB TOTAL     ACCESS:    3283965  HIT:    3283957  MISS:          8  HIT %:    99.9998  MISS %: 0.000243608   MPKI: 0.00032
BTB BRANCH_DIRECT_JUMP	ACCESS:     568311  HIT:     568309  MISS:          2
BTB BRANCH_INDIRECT	ACCESS:          0  HIT:          0  MISS:          0
BTB BRANCH_CONDITIONAL	ACCESS:    1606986  HIT:    1606982  MISS:          4
BTB BRANCH_DIRECT_CALL	ACCESS:     554334  HIT:     554333  MISS:          1
BTB BRANCH_INDIRECT_CALL	ACCESS:          0  HIT:          0  MISS:          0
BTB BRANCH_RETURN	ACCESS:     554334  HIT:     554333  MISS:          1
BTB BRANCH_OTHER ACCESS:          0  HIT:          0  MISS:          0

L2C TOTAL     ACCESS:    2771757  HIT:    1723164  MISS:    1048593  HIT %:    62.1687  MISS %:    37.8313   MPKI: 41.9437
L2C LOAD      ACCESS:    1135886  HIT:     411042  MISS:     724844  HIT %:    36.1869  MISS %:    63.8131   MPKI: 28.9938
L2C DATA LOAD MPKI: 28.9938
L2C INSTRUCTION LOAD MPKI: 0
L2C RFO       ACCESS:      69364  HIT:      39395  MISS:      29969  HIT %:    56.7946  MISS %:    43.2054   MPKI: 1.19876
L2C WRITEBACK ACCESS:     554349  HIT:     554349  MISS:          0  HIT %:        100  MISS %:          0   MPKI: 0
L2C LOAD TRANSLATION ACCESS:     572482  HIT:     422347  MISS:     150135  HIT %:    73.7747  MISS %:    26.2253   MPKI: 6.0054
L2C PREFETCH TRANSLATION ACCESS:     439676  HIT:     296031  MISS:     143645  HIT %:    67.3294  MISS %:    32.6706   MPKI: 5.7458
L2C PREFETCH  REQUESTED:          0  ISSUED:          0  USEFUL:     113499  USELESS:      30109
L2C USEFUL LOAD PREFETCHES:     113499 PREFETCH ISSUED TO LOWER LEVEL:          0  ACCURACY: inf
L2C TIMELY PREFETCHES:     113499 LATE PREFETCHES: 0 DROPPED PREFETCHES: 0
L2C PREFETCHES SAME FILL-ORIGIN LEVEL: 0 DIFFERENT FILL-ORIGIN LEVEL: 0
L2C AVERAGE MISS LATENCY: 136.16 cycles
L2C RQ	ACCESS:    2217409	FORWARD:          0	MERGED:          0	TO_CACHE:    2217409
L2C WQ	ACCESS:     554349	FORWARD:          0	MERGED:          0	TO_CACHE:     554349

L2C Instructions Evicting Data 0
L2C Translations Evicting Data 174634
L2C Data Evicting Data 580002
L2C Instructions Evicting Instructions 0
L2C Translations Evicting Instructions 0
L2C Data Evicting Instructions 0
L2C Instructions Evicting Translations 0
L2C Translations Evicting Translations 119146
L2C Data Evicting Translations 174811
L2C Dense regions hint from L2: 0
PSCL5 TOTAL     ACCESS:     918173  HIT:     918173  MISS:          0  HIT %:        100  MISS %:          0   MPKI: 0
PSCL5 LOAD TRANSLATION ACCESS:     534830  HIT:     534830  MISS:          0  HIT %:        100  MISS %:          0   MPKI: 0
PSCL5 PREFETCH TRANSLATION ACCESS:     383343  HIT:     383343  MISS:          0  HIT %:        100  MISS %:          0   MPKI: 0
PSCL5 PREFETCH  REQUESTED:          0  ISSUED:          0  USEFUL:          0  USELESS:          0
PSCL5 USEFUL LOAD PREFETCHES:          0 PREFETCH ISSUED TO LOWER LEVEL:          0  ACCURACY: -nan
PSCL5 TIMELY PREFETCHES:          0 LATE PREFETCHES: 0 DROPPED PREFETCHES: 0
PSCL5 PREFETCHES SAME FILL-ORIGIN LEVEL: 0 DIFFERENT FILL-ORIGIN LEVEL: 0

PSCL4 TOTAL     ACCESS:     918173  HIT:     918173  MISS:          0  HIT %:        100  MISS %:          0   MPKI: 0
PSCL4 LOAD TRANSLATION ACCESS:     534830  HIT:     534830  MISS:          0  HIT %:        100  MISS %:          0   MPKI: 0
PSCL4 PREFETCH TRANSLATION ACCESS:     383343  HIT:     383343  MISS:          0  HIT %:        100  MISS %:          0   MPKI: 0
PSCL4 PREFETCH  REQUESTED:          0  ISSUED:          0  USEFUL:          0  USELESS:          0
PSCL4 USEFUL LOAD PREFETCHES:          0 PREFETCH ISSUED TO LOWER LEVEL:          0  ACCURACY: -nan
PSCL4 TIMELY PREFETCHES:          0 LATE PREFETCHES: 0 DROPPED PREFETCHES: 0
PSCL4 PREFETCHES SAME FILL-ORIGIN LEVEL: 0 DIFFERENT FILL-ORIGIN LEVEL: 0

PSCL3 TOTAL     ACCESS:     918114  HIT:     918114  MISS:          0  HIT %:        100  MISS %:          0   MPKI: 0
PSCL3 LOAD TRANSLATION ACCESS:     534830  HIT:     534830  MISS:          0  HIT %:        100  MISS %:          0   MPKI: 0
PSCL3 PREFETCH TRANSLATION ACCESS:     383284  HIT:     383284  MISS:          0  HIT %:        100  MISS %:          0   MPKI: 0
PSCL3 PREFETCH  REQUESTED:          0  ISSUED:          0  USEFUL:          0  USELESS:          0
PSCL3 USEFUL LOAD PREFETCHES:          0 PREFETCH ISSUED TO LOWER LEVEL:          0  ACCURACY: -nan
PSCL3 TIMELY PREFETCHES:          0 LATE PREFETCHES: 0 DROPPED PREFETCHES: 0
PSCL3 PREFETCHES SAME FILL-ORIGIN LEVEL: 0 DIFFERENT FILL-ORIGIN LEVEL: 0

PSCL2 TOTAL     ACCESS:     901430  HIT:     821331  MISS:      80099  HIT %:    91.1142  MISS %:    8.88577   MPKI: 3.20396
PSCL2 LOAD TRANSLATION ACCESS:     577276  HIT:     497177  MISS:      80099  HIT %:    86.1247  MISS %:    13.8753   MPKI: 3.20396
PSCL2 PREFETCH TRANSLATION ACCESS:     324154  HIT:     324154  MISS:          0  HIT %:        100  MISS %:          0   MPKI: 0
PSCL2 PREFETCH  REQUESTED:          0  ISSUED:          0  USEFUL:          0  USELESS:          0
PSCL2 USEFUL LOAD PREFETCHES:          0 PREFETCH ISSUED TO LOWER LEVEL:          0  ACCURACY: -nan
PSCL2 TIMELY PREFETCHES:          0 LATE PREFETCHES: 0 DROPPED PREFETCHES: 0
PSCL2 PREFETCHES SAME FILL-ORIGIN LEVEL: 0 DIFFERENT FILL-ORIGIN LEVEL: 0

LLC TOTAL     ACCESS:    1603279  HIT:     951726  MISS:     651553  HIT %:    59.3612  MISS %:    40.6388   MPKI: 26.0621
LLC LOAD      ACCESS:     724844  HIT:      83355  MISS:     641489  HIT %:    11.4997  MISS %:    88.5003   MPKI: 25.6596
LLC RFO       ACCESS:      29969  HIT:      29965  MISS:          4  HIT %:    99.9867  MISS %:  0.0133471   MPKI: 0.00016
LLC WRITEBACK ACCESS:     554686  HIT:     554686  MISS:          0  HIT %:        100  MISS %:          0   MPKI: 0
LLC LOAD TRANSLATION ACCESS:     150135  HIT:     145655  MISS:       4480  HIT %:     97.016  MISS %:    2.98398   MPKI: 0.1792
LLC PREFETCH TRANSLATION ACCESS:     143645  HIT:     138065  MISS:       5580  HIT %:    96.1154  MISS %:    3.88458   MPKI: 0.2232
LLC PREFETCH  REQUESTED:          0  ISSUED:          0  USEFUL:       3587  USELESS:       2039
LLC USEFUL LOAD PREFETCHES:       3587 PREFETCH ISSUED TO LOWER LEVEL:          0  ACCURACY: inf
LLC TIMELY PREFETCHES:       3587 LATE PREFETCHES: 0 DROPPED PREFETCHES: 0
LLC PREFETCHES SAME FILL-ORIGIN LEVEL: 0 DIFFERENT FILL-ORIGIN LEVEL: 0
LLC AVERAGE MISS LATENCY: 170.652 cycles
LLC RQ	ACCESS:    1048594	FORWARD:          0	MERGED:          0	TO_CACHE:    1048594
LLC WQ	ACCESS:     554686	FORWARD:          0	MERGED:          0	TO_CACHE:     554686

LLC Dense regions hint to LLC: 0

RAW hits: 487023
Loads Generated: 6650534
Loads sent to L1D: 6163508
Stores Generated: 1108672
Stores sent to L1D: 1108674
Major fault: 0 Minor fault: 23115
Allocated PAGES: 23115
CPU 0 STLB arbitrary stride prefetcher final stats
Degree: 4

DRAM Statistics
 CHANNEL 0
 RQ ROW_BUFFER_HIT:        881  ROW_BUFFER_MISS:     650672
 DBUS_CONGESTED:          4
 WQ ROW_BUFFER_HIT:     228733  ROW_BUFFER_MISS:     325678  FULL:          0

 AVG_CONGESTED_CYCLE: 7
 All warmup complete: 2
Channel 0 Bank busy for read cycles: 0
Channel 0 Bank busy for write cycles: 0
Channel 0
Rank 0
0banks busy for read cycles: 2201662
0banks busy for write cycles: 49927
1banks busy for read cycles: 19429737
1banks busy for write cycles: 4051374
2banks busy for read cycles: 13679429
2banks busy for write cycles: 6104545
3banks busy for read cycles: 11744973
3banks busy for write cycles: 9391235
4banks busy for read cycles: 3830508
4banks busy for write cycles: 8520074
5banks busy for read cycles: 59708
5banks busy for write cycles: 3668813
6banks busy for read cycles: 233
6banks busy for write cycles: 1522226
7banks busy for read cycles: 0
7banks busy for write cycles: 748592
8banks busy for read cycles: 0
8banks busy for write cycles: 580214

CPU 0 Branch Prediction Accuracy: 99.9685% MPKI: 0.04912 Average ROB Occupancy at Mispredict: 155.656
Branch types
NOT_BRANCH: 21105652 84.4226%
BRANCH_DIRECT_JUMP: 568311 2.27324%
BRANCH_INDIRECT: 0 0%
BRANCH_CONDITIONAL: 2217337 8.86935%
BRANCH_DIRECT_CALL: 554334 2.21734%
BRANCH_INDIRECT_CALL: 0 0%
BRANCH_RETURN: 554334 2.21734%
BRANCH_OTHER: 0 0%

DRAM PAGES: 1048576
Allocated PAGES: 23115
