
*** ChampSim Multicore Out-of-Order Simulator ***

Warmup Instructions: 25000000
Simulation Instructions: 25000000
Number of CPUs: 1
LLC sets: 2048
LLC ways: 16
Off-chip DRAM Size: 4096 MB Channels: 1 Width: 64-bit Data Rate: 6400 MT/s
CPU 0 runs ../given/traces/trace1.champsimtrace.xz
.xz
CPU 0 Bimodal branch predictor
BTB has LRU replacement policy
ITLB has LRU replacement policy
DTLB has LRU replacement policy
STLB has LRU replacement policy
L1I has LRU replacement policy
L1D has LRU replacement policy
L2C has LRU replacement policy
LLC has LRU replacement policy
Heartbeat CPU 0 instructions: 10000003 cycles: 2830061 heartbeat IPC: 3.53349 cumulative IPC: 3.53349 (Simulation time: 0 hr 0 min 48 sec) 
Heartbeat CPU 0 instructions: 20000003 cycles: 5650207 heartbeat IPC: 3.54592 cumulative IPC: 3.53969 (Simulation time: 0 hr 1 min 36 sec) 

Warmup complete CPU 0 instructions: 25000004 cycles: 7064357 (Simulation time: 0 hr 2 min 2 sec) 

Heartbeat CPU 0 instructions: 30000002 cycles: 23982403 heartbeat IPC: 0.545488 cumulative IPC: 0.295542 (Simulation time: 0 hr 2 min 58 sec) 
Heartbeat CPU 0 instructions: 40000001 cycles: 60314226 heartbeat IPC: 0.275241 cumulative IPC: 0.281691 (Simulation time: 0 hr 4 min 54 sec) 
Heartbeat CPU 0 instructions: 50000000 cycles: 95466438 heartbeat IPC: 0.284477 cumulative IPC: 0.282799 (Simulation time: 0 hr 6 min 51 sec) 
Finished CPU 0 instructions: 25000000 cycles: 88402083 cumulative IPC: 0.282799 (Simulation time: 0 hr 6 min 51 sec) 

ChampSim completed all CPUs

Region of Interest Statistics

CPU 0 cumulative IPC: 0.282799 instructions: 25000000 cycles: 88402083
ITLB TOTAL     ACCESS:    4437886  HIT:    4437886  MISS:          0  HIT %:        100  MISS %:          0   MPKI: 0
ITLB LOAD TRANSLATION ACCESS:    4437886  HIT:    4437886  MISS:          0  HIT %:        100  MISS %:          0   MPKI: 0
ITLB PREFETCH  REQUESTED:          0  ISSUED:          0  USEFUL:          0  USELESS:          0
ITLB USEFUL LOAD PREFETCHES:          0 PREFETCH ISSUED TO LOWER LEVEL:          0  ACCURACY: -nan
ITLB TIMELY PREFETCHES:          0 LATE PREFETCHES: 0 DROPPED PREFETCHES: 0
ITLB PREFETCHES SAME FILL-ORIGIN LEVEL: 0 DIFFERENT FILL-ORIGIN LEVEL: 0
ITLB AVERAGE MISS LATENCY: -nan cycles
ITLB RQ	ACCESS:    4791652	FORWARD:          0	MERGED:     353766	TO_CACHE:    4437886

DTLB TOTAL     ACCESS:    3715363  HIT:    3052453  MISS:     662910  HIT %:    82.1576  MISS %:    17.8424   MPKI: 26.5164
DTLB LOAD TRANSLATION ACCESS:    3715363  HIT:    3052453  MISS:     662910  HIT %:    82.1576  MISS %:    17.8424   MPKI: 26.5164
DTLB PREFETCH  REQUESTED:          0  ISSUED:          0  USEFUL:          0  USELESS:          0
DTLB USEFUL LOAD PREFETCHES:          0 PREFETCH ISSUED TO LOWER LEVEL:          0  ACCURACY: -nan
DTLB TIMELY PREFETCHES:          0 LATE PREFETCHES: 0 DROPPED PREFETCHES: 0
DTLB PREFETCHES SAME FILL-ORIGIN LEVEL: 0 DIFFERENT FILL-ORIGIN LEVEL: 0
DTLB AVERAGE MISS LATENCY: 54.2439 cycles
DTLB RQ	ACCESS:    4315211	FORWARD:          0	MERGED:     591313	TO_CACHE:    3723898

STLB TOTAL     ACCESS:     662910  HIT:     100883  MISS:     562027  HIT %:    15.2182  MISS %:    84.7818   MPKI: 22.4811
STLB LOAD TRANSLATION ACCESS:     662910  HIT:     100883  MISS:     562027  HIT %:    15.2182  MISS %:    84.7818   MPKI: 22.4811
STLB PREFETCH  REQUESTED:          0  ISSUED:          0  USEFUL:          0  USELESS:          0
STLB USEFUL LOAD PREFETCHES:          0 PREFETCH ISSUED TO LOWER LEVEL:          0  ACCURACY: -nan
STLB TIMELY PREFETCHES:          0 LATE PREFETCHES: 0 DROPPED PREFETCHES: 0
STLB PREFETCHES SAME FILL-ORIGIN LEVEL: 0 DIFFERENT FILL-ORIGIN LEVEL: 0
STLB AVERAGE MISS LATENCY: 53.2166 cycles
STLB RQ	ACCESS:     662913	FORWARD:          0	MERGED:          0	TO_CACHE:     662913

STLB Hit, L1D data hit: 0
STLB Hit, L2C data hit: 0
STLB Hit, LLC data hit: 0
STLB Hit, LLC data miss: 0
STLB STLB hints to L2: 0
L1D TOTAL     ACCESS:    4295699  HIT:    3090448  MISS:    1205251  HIT %:    71.9428  MISS %:    28.0572   MPKI: 48.21
L1D LOAD      ACCESS:    3187035  HIT:    2051148  MISS:    1135887  HIT %:    64.3591  MISS %:    35.6409   MPKI: 45.4355
L1D RFO       ACCESS:    1108664  HIT:    1039300  MISS:      69364  HIT %:    93.7435  MISS %:    6.25654   MPKI: 2.77456
L1D PREFETCH  REQUESTED:          0  ISSUED:          0  USEFUL:          0  USELESS:          0
L1D USEFUL LOAD PREFETCHES:          0 PREFETCH ISSUED TO LOWER LEVEL:          0  ACCURACY: -nan
L1D TIMELY PREFETCHES:          0 LATE PREFETCHES: 0 DROPPED PREFETCHES: 0
L1D PREFETCHES SAME FILL-ORIGIN LEVEL: 0 DIFFERENT FILL-ORIGIN LEVEL: 0
L1D AVERAGE MISS LATENCY: 124.595 cycles
L1D RQ	ACCESS:    6162549	FORWARD:          0	MERGED:    2890469	TO_CACHE:    3206545
L1D WQ	ACCESS:    1108674	FORWARD:      65535	MERGED:          8	TO_CACHE:    1108666

L1D UNIQUE REGIONS ACCESSED: 0
L1D REGIONS CONFLICTS: 0
L1D Cross Page Prefetch Requests: 0
L1D Same Page Prefetch Requests: 0
L1D ROI Sum of L1D PQ occupancy: 0
L1D PREFETCHES PUSHED FROM L2C: 0
L1I TOTAL     ACCESS:    4791650  HIT:    4791650  MISS:          0  HIT %:        100  MISS %:          0   MPKI: 0
L1I LOAD      ACCESS:    4791650  HIT:    4791650  MISS:          0  HIT %:        100  MISS %:          0   MPKI: 0
L1I PREFETCH  REQUESTED:          0  ISSUED:          0  USEFUL:          0  USELESS:          0
L1I USEFUL LOAD PREFETCHES:          0 PREFETCH ISSUED TO LOWER LEVEL:          0  ACCURACY: -nan
L1I TIMELY PREFETCHES:          0 LATE PREFETCHES: 0 DROPPED PREFETCHES: 0
L1I PREFETCHES SAME FILL-ORIGIN LEVEL: 0 DIFFERENT FILL-ORIGIN LEVEL: 0
L1I AVERAGE MISS LATENCY: -nan cycles
L1I RQ	ACCESS:    7098821	FORWARD:          0	MERGED:    2307169	TO_CACHE:    4791652

BTB TOTAL     ACCESS:    3283965  HIT:    3283957  MISS:          8  HIT %:    99.9998  MISS %: 0.000243608   MPKI: 0.00032
BTB BRANCH_DIRECT_JUMP	ACCESS:     568311  HIT:     568309  MISS:          2
BTB BRANCH_INDIRECT	ACCESS:          0  HIT:          0  MISS:          0
BTB BRANCH_CONDITIONAL	ACCESS:    1606986  HIT:    1606982  MISS:          4
BTB BRANCH_DIRECT_CALL	ACCESS:     554334  HIT:     554333  MISS:          1
BTB BRANCH_INDIRECT_CALL	ACCESS:          0  HIT:          0  MISS:          0
BTB BRANCH_RETURN	ACCESS:     554334  HIT:     554333  MISS:          1
BTB BRANCH_OTHER ACCESS:          0  HIT:          0  MISS:          0

L2C TOTAL     ACCESS:    2398468  HIT:    1415446  MISS:     983022  HIT %:    59.0146  MISS %:    40.9854   MPKI: 39.3209
L2C LOAD      ACCESS:    1135887  HIT:     417711  MISS:     718176  HIT %:     36.774  MISS %:     63.226   MPKI: 28.727
L2C DATA LOAD MPKI: 28.727
L2C INSTRUCTION LOAD MPKI: 0
L2C RFO       ACCESS:      69364  HIT:      42368  MISS:      26996  HIT %:    61.0807  MISS %:    38.9193   MPKI: 1.07984
L2C WRITEBACK ACCESS:     554350  HIT:     554350  MISS:          0  HIT %:        100  MISS %:          0   MPKI: 0
L2C LOAD TRANSLATION ACCESS:     638867  HIT:     401017  MISS:     237850  HIT %:      62.77  MISS %:      37.23   MPKI: 9.514
L2C PREFETCH  REQUESTED:          0  ISSUED:          0  USEFUL:          0  USELESS:          0
L2C USEFUL LOAD PREFETCHES:          0 PREFETCH ISSUED TO LOWER LEVEL:          0  ACCURACY: -nan
L2C TIMELY PREFETCHES:          0 LATE PREFETCHES: 0 DROPPED PREFETCHES: 0
L2C PREFETCHES SAME FILL-ORIGIN LEVEL: 0 DIFFERENT FILL-ORIGIN LEVEL: 0
L2C AVERAGE MISS LATENCY: 142.761 cycles
L2C RQ	ACCESS:    1844119	FORWARD:          0	MERGED:          0	TO_CACHE:    1844119
L2C WQ	ACCESS:     554350	FORWARD:          0	MERGED:          0	TO_CACHE:     554350

L2C Instructions Evicting Data 0
L2C Translations Evicting Data 142268
L2C Data Evicting Data 602829
L2C Instructions Evicting Instructions 0
L2C Translations Evicting Instructions 0
L2C Data Evicting Instructions 0
L2C Instructions Evicting Translations 0
L2C Translations Evicting Translations 95582
L2C Data Evicting Translations 142343
L2C Dense regions hint from L2: 0
PSCL5 TOTAL     ACCESS:     562028  HIT:     562028  MISS:          0  HIT %:        100  MISS %:          0   MPKI: 0
PSCL5 LOAD TRANSLATION ACCESS:     562028  HIT:     562028  MISS:          0  HIT %:        100  MISS %:          0   MPKI: 0
PSCL5 PREFETCH  REQUESTED:          0  ISSUED:          0  USEFUL:          0  USELESS:          0
PSCL5 USEFUL LOAD PREFETCHES:          0 PREFETCH ISSUED TO LOWER LEVEL:          0  ACCURACY: -nan
PSCL5 TIMELY PREFETCHES:          0 LATE PREFETCHES: 0 DROPPED PREFETCHES: 0
PSCL5 PREFETCHES SAME FILL-ORIGIN LEVEL: 0 DIFFERENT FILL-ORIGIN LEVEL: 0

PSCL4 TOTAL     ACCESS:     562028  HIT:     562028  MISS:          0  HIT %:        100  MISS %:          0   MPKI: 0
PSCL4 LOAD TRANSLATION ACCESS:     562028  HIT:     562028  MISS:          0  HIT %:        100  MISS %:          0   MPKI: 0
PSCL4 PREFETCH  REQUESTED:          0  ISSUED:          0  USEFUL:          0  USELESS:          0
PSCL4 USEFUL LOAD PREFETCHES:          0 PREFETCH ISSUED TO LOWER LEVEL:          0  ACCURACY: -nan
PSCL4 TIMELY PREFETCHES:          0 LATE PREFETCHES: 0 DROPPED PREFETCHES: 0
PSCL4 PREFETCHES SAME FILL-ORIGIN LEVEL: 0 DIFFERENT FILL-ORIGIN LEVEL: 0

PSCL3 TOTAL     ACCESS:     562028  HIT:     562028  MISS:          0  HIT %:        100  MISS %:          0   MPKI: 0
PSCL3 LOAD TRANSLATION ACCESS:     562028  HIT:     562028  MISS:          0  HIT %:        100  MISS %:          0   MPKI: 0
PSCL3 PREFETCH  REQUESTED:          0  ISSUED:          0  USEFUL:          0  USELESS:          0
PSCL3 USEFUL LOAD PREFETCHES:          0 PREFETCH ISSUED TO LOWER LEVEL:          0  ACCURACY: -nan
PSCL3 TIMELY PREFETCHES:          0 LATE PREFETCHES: 0 DROPPED PREFETCHES: 0
PSCL3 PREFETCHES SAME FILL-ORIGIN LEVEL: 0 DIFFERENT FILL-ORIGIN LEVEL: 0

PSCL2 TOTAL     ACCESS:     562028  HIT:     485188  MISS:      76840  HIT %:    86.3281  MISS %:    13.6719   MPKI: 3.0736
PSCL2 LOAD TRANSLATION ACCESS:     562028  HIT:     485188  MISS:      76840  HIT %:    86.3281  MISS %:    13.6719   MPKI: 3.0736
PSCL2 PREFETCH  REQUESTED:          0  ISSUED:          0  USEFUL:          0  USELESS:          0
PSCL2 USEFUL LOAD PREFETCHES:          0 PREFETCH ISSUED TO LOWER LEVEL:          0  ACCURACY: -nan
PSCL2 TIMELY PREFETCHES:          0 LATE PREFETCHES: 0 DROPPED PREFETCHES: 0
PSCL2 PREFETCHES SAME FILL-ORIGIN LEVEL: 0 DIFFERENT FILL-ORIGIN LEVEL: 0

LLC TOTAL     ACCESS:    1537802  HIT:     887938  MISS:     649864  HIT %:    57.7407  MISS %:    42.2593   MPKI: 25.9946
LLC LOAD      ACCESS:     718176  HIT:      76697  MISS:     641479  HIT %:    10.6794  MISS %:    89.3206   MPKI: 25.6592
LLC RFO       ACCESS:      26996  HIT:      26992  MISS:          4  HIT %:    99.9852  MISS %:   0.014817   MPKI: 0.00016
LLC WRITEBACK ACCESS:     554780  HIT:     554780  MISS:          0  HIT %:        100  MISS %:          0   MPKI: 0
LLC LOAD TRANSLATION ACCESS:     237850  HIT:     229469  MISS:       8381  HIT %:    96.4764  MISS %:    3.52365   MPKI: 0.33524
LLC PREFETCH  REQUESTED:          0  ISSUED:          0  USEFUL:          0  USELESS:          0
LLC USEFUL LOAD PREFETCHES:          0 PREFETCH ISSUED TO LOWER LEVEL:          0  ACCURACY: -nan
LLC TIMELY PREFETCHES:          0 LATE PREFETCHES: 0 DROPPED PREFETCHES: 0
LLC PREFETCHES SAME FILL-ORIGIN LEVEL: 0 DIFFERENT FILL-ORIGIN LEVEL: 0
LLC AVERAGE MISS LATENCY: 170.384 cycles
LLC RQ	ACCESS:     983023	FORWARD:          0	MERGED:          0	TO_CACHE:     983023
LLC WQ	ACCESS:     554780	FORWARD:          0	MERGED:          0	TO_CACHE:     554780

LLC Dense regions hint to LLC: 0

RAW hits: 487988
Loads Generated: 6650540
Loads sent to L1D: 6162549
Stores Generated: 1108674
Stores sent to L1D: 1108674
Major fault: 0 Minor fault: 23115
Allocated PAGES: 23115

DRAM Statistics
 CHANNEL 0
 RQ ROW_BUFFER_HIT:        725  ROW_BUFFER_MISS:     649139
 DBUS_CONGESTED:          5
 WQ ROW_BUFFER_HIT:     200588  ROW_BUFFER_MISS:     353830  FULL:          0

 AVG_CONGESTED_CYCLE: 5
 All warmup complete: 2
Channel 0 Bank busy for read cycles: 0
Channel 0 Bank busy for write cycles: 0
Channel 0
Rank 0
0banks busy for read cycles: 2815521
0banks busy for write cycles: 65089
1banks busy for read cycles: 20604487
1banks busy for write cycles: 4954914
2banks busy for read cycles: 14341302
2banks busy for write cycles: 7146751
3banks busy for read cycles: 11275722
3banks busy for write cycles: 10306606
4banks busy for read cycles: 3558637
4banks busy for write cycles: 8212003
5banks busy for read cycles: 11676
5banks busy for write cycles: 2970489
6banks busy for read cycles: 0
6banks busy for write cycles: 1135925
7banks busy for read cycles: 0
7banks busy for write cycles: 551721
8banks busy for read cycles: 0
8banks busy for write cycles: 451241

CPU 0 Branch Prediction Accuracy: 99.9685% MPKI: 0.04912 Average ROB Occupancy at Mispredict: 155.876
Branch types
NOT_BRANCH: 21105652 84.4226%
BRANCH_DIRECT_JUMP: 568311 2.27324%
BRANCH_INDIRECT: 0 0%
BRANCH_CONDITIONAL: 2217337 8.86935%
BRANCH_DIRECT_CALL: 554334 2.21734%
BRANCH_INDIRECT_CALL: 0 0%
BRANCH_RETURN: 554334 2.21734%
BRANCH_OTHER: 0 0%

DRAM PAGES: 1048576
Allocated PAGES: 23115
