
*** ChampSim Multicore Out-of-Order Simulator ***

Warmup Instructions: 25000000
Simulation Instructions: 25000000
Number of CPUs: 1
LLC sets: 2048
LLC ways: 16
Off-chip DRAM Size: 4096 MB Channels: 1 Width: 64-bit Data Rate: 6400 MT/s
CPU 0 runs given/traces/trace2.champsimtrace.xz
.xz
CPU 0 Bimodal branch predictor
BTB has LRU replacement policy
ITLB has LRU replacement policy
DTLB has LRU replacement policy
STLB has LRU replacement policy
L1I has LRU replacement policy
CPU 0 L1D Complex-Stride prefetcher initialized
L1D has LRU replacement policy
L2C has LRU replacement policy
LLC has LRU replacement policy
Heartbeat CPU 0 instructions: 10000002 cycles: 3733960 heartbeat IPC: 2.67812 cumulative IPC: 2.67812 (Simulation time: 0 hr 0 min 34 sec) 
Heartbeat CPU 0 instructions: 20000001 cycles: 7469336 heartbeat IPC: 2.67711 cumulative IPC: 2.67761 (Simulation time: 0 hr 1 min 8 sec) 

Warmup complete CPU 0 instructions: 25000001 cycles: 9336061 (Simulation time: 0 hr 1 min 25 sec) 

Heartbeat CPU 0 instructions: 30000001 cycles: 23477856 heartbeat IPC: 0.624667 cumulative IPC: 0.353562 (Simulation time: 0 hr 1 min 52 sec) 
Heartbeat CPU 0 instructions: 40000002 cycles: 51575937 heartbeat IPC: 0.355896 cumulative IPC: 0.355115 (Simulation time: 0 hr 2 min 47 sec) 
Retire attempted: 68079838 Failed due to ip: 852715 Failed due to non completion: 0 Retired instructions: 46680979
Heartbeat CPU 0 instructions: 50000000 cycles: 79135260 heartbeat IPC: 0.362854 cumulative IPC: 0.35817 (Simulation time: 0 hr 3 min 42 sec) 
Finished CPU 0 instructions: 25000000 cycles: 69799221 cumulative IPC: 0.35817 (Simulation time: 0 hr 3 min 42 sec) 

ChampSim completed all CPUs

Region of Interest Statistics

CPU 0 cumulative IPC: 0.35817 instructions: 25000000 cycles: 69799221
ITLB TOTAL     ACCESS:    4568926  HIT:    4568926  MISS:          0  HIT %:        100  MISS %:          0   MPKI: 0
ITLB LOAD TRANSLATION ACCESS:    4568926  HIT:    4568926  MISS:          0  HIT %:        100  MISS %:          0   MPKI: 0
ITLB PREFETCH  REQUESTED:          0  ISSUED:          0  USEFUL:          0  USELESS:          0
ITLB USEFUL LOAD PREFETCHES:          0 PREFETCH ISSUED TO LOWER LEVEL:          0  ACCURACY: -nan
ITLB TIMELY PREFETCHES:          0 LATE PREFETCHES: 0 DROPPED PREFETCHES: 0
ITLB PREFETCHES SAME FILL-ORIGIN LEVEL: 0 DIFFERENT FILL-ORIGIN LEVEL: 0
ITLB AVERAGE MISS LATENCY: -nan cycles
ITLB RQ	ACCESS:    4654338	FORWARD:          0	MERGED:      85413	TO_CACHE:    4568925

DTLB TOTAL     ACCESS:    3869074  HIT:    3835061  MISS:      34013  HIT %:    99.1209  MISS %:   0.879099   MPKI: 1.36052
DTLB LOAD TRANSLATION ACCESS:    3869074  HIT:    3835061  MISS:      34013  HIT %:    99.1209  MISS %:   0.879099   MPKI: 1.36052
DTLB PREFETCH  REQUESTED:          0  ISSUED:          0  USEFUL:          0  USELESS:          0
DTLB USEFUL LOAD PREFETCHES:          0 PREFETCH ISSUED TO LOWER LEVEL:          0  ACCURACY: -nan
DTLB TIMELY PREFETCHES:          0 LATE PREFETCHES: 0 DROPPED PREFETCHES: 0
DTLB PREFETCHES SAME FILL-ORIGIN LEVEL: 0 DIFFERENT FILL-ORIGIN LEVEL: 0
DTLB AVERAGE MISS LATENCY: 106.666 cycles
DTLB RQ	ACCESS:    4553772	FORWARD:          0	MERGED:     684572	TO_CACHE:    3869200

STLB TOTAL     ACCESS:    1851873  HIT:    1819203  MISS:      32670  HIT %:    98.2358  MISS %:    1.76416   MPKI: 1.3068
STLB LOAD TRANSLATION ACCESS:      34013  HIT:       1348  MISS:      32665  HIT %:    3.96319  MISS %:    96.0368   MPKI: 1.3066
STLB TRANSLATION FROM L1D PREFETCHER ACCESS:    1817860  HIT:    1817855  MISS:          5  HIT %:    99.9997  MISS %: 0.000275049   MPKI: 0.0002
STLB PREFETCH  REQUESTED:          0  ISSUED:          0  USEFUL:          3  USELESS:          1
STLB USEFUL LOAD PREFETCHES:          3 PREFETCH ISSUED TO LOWER LEVEL:          0  ACCURACY: inf
STLB TIMELY PREFETCHES:          3 LATE PREFETCHES: 0 DROPPED PREFETCHES: 0
STLB PREFETCHES SAME FILL-ORIGIN LEVEL: 0 DIFFERENT FILL-ORIGIN LEVEL: 0
STLB AVERAGE MISS LATENCY: 101.71 cycles
STLB RQ	ACCESS:    9624307	FORWARD:          0	MERGED:    7772434	TO_CACHE:    1851873

STLB Hit, L1D data hit: 0
STLB Hit, L2C data hit: 0
STLB Hit, LLC data hit: 0
STLB Hit, LLC data miss: 0
STLB STLB hints to L2: 0
L1D TOTAL     ACCESS:   10258962  HIT:    8451872  MISS:    1807090  HIT %:    82.3853  MISS %:    17.6147   MPKI: 72.2836
L1D LOAD      ACCESS:    4181157  HIT:    3926167  MISS:     254990  HIT %:    93.9014  MISS %:    6.09855   MPKI: 10.1996
L1D RFO       ACCESS:     333328  HIT:     332923  MISS:        405  HIT %:    99.8785  MISS %:   0.121502   MPKI: 0.0162
L1D PREFETCH  ACCESS:    5744477  HIT:    4192782  MISS:    1551695  HIT %:    72.9881  MISS %:    27.0119   MPKI: 62.0678
AGUS PREFETCH L1 MISS: 0
L1D PREFETCH  REQUESTED:   20235416  ISSUED:   20235391  USEFUL:    1495028  USELESS:      56696
L1D USEFUL LOAD PREFETCHES:    1495028 PREFETCH ISSUED TO LOWER LEVEL:    1748899  ACCURACY: 85.484
L1D TIMELY PREFETCHES:    1495028 LATE PREFETCHES: 197151 DROPPED PREFETCHES: 0
L1D PREFETCHES SAME FILL-ORIGIN LEVEL: 1748899 DIFFERENT FILL-ORIGIN LEVEL: 0
L1D AVERAGE MISS LATENCY: 122.478 cycles
L1D RQ	ACCESS:    8972941	FORWARD:          0	MERGED:    4750939	TO_CACHE:    4220440
L1D WQ	ACCESS:     370377	FORWARD:       1562	MERGED:      37045	TO_CACHE:     333332
L1D PQ	ACCESS:   10645097	FORWARD:          0	MERGED:    1054803	TO_CACHE:    9590294

L1D UNIQUE REGIONS ACCESSED: 0
L1D REGIONS CONFLICTS: 0
L1D Cross Page Prefetch Requests: 0
L1D Same Page Prefetch Requests: 28823886
L1D ROI Sum of L1D PQ occupancy: 127414353
L1D PREFETCHES PUSHED FROM L2C: 0
L1I TOTAL     ACCESS:    4654338  HIT:    4654338  MISS:          0  HIT %:        100  MISS %:          0   MPKI: 0
L1I LOAD      ACCESS:    4654338  HIT:    4654338  MISS:          0  HIT %:        100  MISS %:          0   MPKI: 0
L1I PREFETCH  REQUESTED:          0  ISSUED:          0  USEFUL:          0  USELESS:          0
L1I USEFUL LOAD PREFETCHES:          0 PREFETCH ISSUED TO LOWER LEVEL:          0  ACCURACY: -nan
L1I TIMELY PREFETCHES:          0 LATE PREFETCHES: 0 DROPPED PREFETCHES: 0
L1I PREFETCHES SAME FILL-ORIGIN LEVEL: 0 DIFFERENT FILL-ORIGIN LEVEL: 0
L1I AVERAGE MISS LATENCY: -nan cycles
L1I RQ	ACCESS:    6991902	FORWARD:          0	MERGED:    2337564	TO_CACHE:    4654338

BTB TOTAL     ACCESS:    5953193  HIT:    5953095  MISS:         98  HIT %:    99.9984  MISS %: 0.00164618   MPKI: 0.00392
BTB BRANCH_DIRECT_JUMP	ACCESS:      85874  HIT:      85848  MISS:         26
BTB BRANCH_INDIRECT	ACCESS:          0  HIT:          0  MISS:          0
BTB BRANCH_CONDITIONAL	ACCESS:    5783213  HIT:    5783164  MISS:         49
BTB BRANCH_DIRECT_CALL	ACCESS:      42053  HIT:      42043  MISS:         10
BTB BRANCH_INDIRECT_CALL	ACCESS:          0  HIT:          0  MISS:          0
BTB BRANCH_RETURN	ACCESS:      42053  HIT:      42040  MISS:         13
BTB BRANCH_OTHER ACCESS:          0  HIT:          0  MISS:          0

L2C TOTAL     ACCESS:    1843169  HIT:      46279  MISS:    1796890  HIT %:    2.51084  MISS %:    97.4892   MPKI: 71.8756
L2C LOAD      ACCESS:      57838  HIT:       2693  MISS:      55145  HIT %:    4.65611  MISS %:    95.3439   MPKI: 2.2058
L2C DATA LOAD MPKI: 2.2058
L2C INSTRUCTION LOAD MPKI: 0
L2C RFO       ACCESS:        352  HIT:         88  MISS:        264  HIT %:         25  MISS %:         75   MPKI: 0.01056
L2C PREFETCH  ACCESS:    1748899  HIT:      14891  MISS:    1734008  HIT %:    0.85145  MISS %:    99.1486   MPKI: 69.3603
AGUS PREFETCH L1 MISS: 0
L2C DATA PREFETCH MPKI: 69.3603
L2C INSTRUCTION PREFETCH MPKI: 0
L2C WRITEBACK ACCESS:       2780  HIT:       2774  MISS:          6  HIT %:    99.7842  MISS %:   0.215827   MPKI: 0.00024
L2C LOAD TRANSLATION ACCESS:      33292  HIT:      25832  MISS:       7460  HIT %:    77.5922  MISS %:    22.4078   MPKI: 0.2984
L2C TRANSLATION FROM L1D PREFETCHER ACCESS:          8  HIT:          1  MISS:          7  HIT %:       12.5  MISS %:       87.5   MPKI: 0.00028
L2C PREFETCH  REQUESTED:          0  ISSUED:          0  USEFUL:       2099  USELESS:    1731708
L2C USEFUL LOAD PREFETCHES:       2099 PREFETCH ISSUED TO LOWER LEVEL:    1734008  ACCURACY: 0.121049
L2C TIMELY PREFETCHES:       2099 LATE PREFETCHES: 0 DROPPED PREFETCHES: 0
L2C PREFETCHES SAME FILL-ORIGIN LEVEL: 0 DIFFERENT FILL-ORIGIN LEVEL: 0
L2C AVERAGE MISS LATENCY: 108.632 cycles
L2C RQ	ACCESS:      91491	FORWARD:          0	MERGED:          0	TO_CACHE:      91490
L2C WQ	ACCESS:       2780	FORWARD:          1	MERGED:          0	TO_CACHE:       2780
L2C PQ	ACCESS:    1748899	FORWARD:          0	MERGED:          0	TO_CACHE:    1748899

L2C Instructions Evicting Data 0
L2C Translations Evicting Data 7442
L2C Data Evicting Data 1781987
L2C Instructions Evicting Instructions 0
L2C Translations Evicting Instructions 0
L2C Data Evicting Instructions 0
L2C Instructions Evicting Translations 0
L2C Translations Evicting Translations 25
L2C Data Evicting Translations 7430
L2C Dense regions hint from L2: 0
PSCL5 TOTAL     ACCESS:      32670  HIT:      32670  MISS:          0  HIT %:        100  MISS %:          0   MPKI: 0
PSCL5 LOAD TRANSLATION ACCESS:      32665  HIT:      32665  MISS:          0  HIT %:        100  MISS %:          0   MPKI: 0
PSCL5 TRANSLATION FROM L1D PREFETCHER ACCESS:          5  HIT:          5  MISS:          0  HIT %:        100  MISS %:          0   MPKI: 0
PSCL5 PREFETCH  REQUESTED:          0  ISSUED:          0  USEFUL:          0  USELESS:          0
PSCL5 USEFUL LOAD PREFETCHES:          0 PREFETCH ISSUED TO LOWER LEVEL:          0  ACCURACY: -nan
PSCL5 TIMELY PREFETCHES:          0 LATE PREFETCHES: 0 DROPPED PREFETCHES: 0
PSCL5 PREFETCHES SAME FILL-ORIGIN LEVEL: 0 DIFFERENT FILL-ORIGIN LEVEL: 0

PSCL4 TOTAL     ACCESS:      32670  HIT:      32670  MISS:          0  HIT %:        100  MISS %:          0   MPKI: 0
PSCL4 LOAD TRANSLATION ACCESS:      32665  HIT:      32665  MISS:          0  HIT %:        100  MISS %:          0   MPKI: 0
PSCL4 TRANSLATION FROM L1D PREFETCHER ACCESS:          5  HIT:          5  MISS:          0  HIT %:        100  MISS %:          0   MPKI: 0
PSCL4 PREFETCH  REQUESTED:          0  ISSUED:          0  USEFUL:          0  USELESS:          0
PSCL4 USEFUL LOAD PREFETCHES:          0 PREFETCH ISSUED TO LOWER LEVEL:          0  ACCURACY: -nan
PSCL4 TIMELY PREFETCHES:          0 LATE PREFETCHES: 0 DROPPED PREFETCHES: 0
PSCL4 PREFETCHES SAME FILL-ORIGIN LEVEL: 0 DIFFERENT FILL-ORIGIN LEVEL: 0

PSCL3 TOTAL     ACCESS:      32670  HIT:      32667  MISS:          3  HIT %:    99.9908  MISS %: 0.00918274   MPKI: 0.00012
PSCL3 LOAD TRANSLATION ACCESS:      32665  HIT:      32662  MISS:          3  HIT %:    99.9908  MISS %: 0.00918414   MPKI: 0.00012
PSCL3 TRANSLATION FROM L1D PREFETCHER ACCESS:          5  HIT:          5  MISS:          0  HIT %:        100  MISS %:          0   MPKI: 0
PSCL3 PREFETCH  REQUESTED:          0  ISSUED:          0  USEFUL:          0  USELESS:          0
PSCL3 USEFUL LOAD PREFETCHES:          0 PREFETCH ISSUED TO LOWER LEVEL:          0  ACCURACY: -nan
PSCL3 TIMELY PREFETCHES:          0 LATE PREFETCHES: 0 DROPPED PREFETCHES: 0
PSCL3 PREFETCHES SAME FILL-ORIGIN LEVEL: 0 DIFFERENT FILL-ORIGIN LEVEL: 0

PSCL2 TOTAL     ACCESS:      32670  HIT:      31945  MISS:        725  HIT %:    97.7808  MISS %:    2.21916   MPKI: 0.029
PSCL2 LOAD TRANSLATION ACCESS:      32668  HIT:      31943  MISS:        725  HIT %:    97.7807  MISS %:     2.2193   MPKI: 0.029
PSCL2 TRANSLATION FROM L1D PREFETCHER ACCESS:          2  HIT:          2  MISS:          0  HIT %:        100  MISS %:          0   MPKI: 0
PSCL2 PREFETCH  REQUESTED:          0  ISSUED:          0  USEFUL:          0  USELESS:          0
PSCL2 USEFUL LOAD PREFETCHES:          0 PREFETCH ISSUED TO LOWER LEVEL:          0  ACCURACY: -nan
PSCL2 TIMELY PREFETCHES:          0 LATE PREFETCHES: 0 DROPPED PREFETCHES: 0
PSCL2 PREFETCHES SAME FILL-ORIGIN LEVEL: 0 DIFFERENT FILL-ORIGIN LEVEL: 0

LLC TOTAL     ACCESS:    1799657  HIT:       5163  MISS:    1794494  HIT %:   0.286888  MISS %:    99.7131   MPKI: 71.7798
LLC LOAD      ACCESS:      55145  HIT:        149  MISS:      54996  HIT %:   0.270197  MISS %:    99.7298   MPKI: 2.19984
LLC RFO       ACCESS:        264  HIT:          1  MISS:        263  HIT %:   0.378788  MISS %:    99.6212   MPKI: 0.01052
LLC PREFETCH  ACCESS:    1734008  HIT:       1909  MISS:    1732099  HIT %:   0.110092  MISS %:    99.8899   MPKI: 69.284
AGUS PREFETCH L1 MISS: 0
LLC WRITEBACK ACCESS:       2773  HIT:       2769  MISS:          4  HIT %:    99.8558  MISS %:   0.144248   MPKI: 0.00016
LLC LOAD TRANSLATION ACCESS:       7460  HIT:        334  MISS:       7126  HIT %:    4.47721  MISS %:    95.5228   MPKI: 0.28504
LLC TRANSLATION FROM L1D PREFETCHER ACCESS:          7  HIT:          1  MISS:          6  HIT %:    14.2857  MISS %:    85.7143   MPKI: 0.00024
LLC PREFETCH  REQUESTED:          0  ISSUED:          0  USEFUL:         30  USELESS:    1731434
LLC USEFUL LOAD PREFETCHES:         30 PREFETCH ISSUED TO LOWER LEVEL:    1732099  ACCURACY: 0.001732
LLC TIMELY PREFETCHES:         30 LATE PREFETCHES: 0 DROPPED PREFETCHES: 0
LLC PREFETCHES SAME FILL-ORIGIN LEVEL: 0 DIFFERENT FILL-ORIGIN LEVEL: 0
LLC AVERAGE MISS LATENCY: 78.6497 cycles
LLC RQ	ACCESS:      62876	FORWARD:          0	MERGED:          0	TO_CACHE:      62876
LLC WQ	ACCESS:       2773	FORWARD:          0	MERGED:          0	TO_CACHE:       2773
LLC PQ	ACCESS:    1734008	FORWARD:          0	MERGED:          0	TO_CACHE:    1734008

LLC Dense regions hint to LLC: 0

RAW hits: 4006
Loads Generated: 8976947
Loads sent to L1D: 8972941
Stores Generated: 370377
Stores sent to L1D: 370377
Major fault: 0 Minor fault: 48857
Allocated PAGES: 48857
CPU 0 L1D complex stride prefetcher final stats
Degree: 5

DRAM Statistics
 CHANNEL 0
 RQ ROW_BUFFER_HIT:    1678833  ROW_BUFFER_MISS:     115657
 DBUS_CONGESTED:        324
 WQ ROW_BUFFER_HIT:        570  ROW_BUFFER_MISS:       2194  FULL:          0

 AVG_CONGESTED_CYCLE: 5
 All warmup complete: 2
Channel 0 Bank busy for read cycles: 0
Channel 0 Bank busy for write cycles: 0
Channel 0
Rank 0
0banks busy for read cycles: 20799457
0banks busy for write cycles: 1358
1banks busy for read cycles: 18375501
1banks busy for write cycles: 292625
2banks busy for read cycles: 18168451
2banks busy for write cycles: 119586
3banks busy for read cycles: 5878252
3banks busy for write cycles: 56127
4banks busy for read cycles: 2912200
4banks busy for write cycles: 26569
5banks busy for read cycles: 1690296
5banks busy for write cycles: 12737
6banks busy for read cycles: 1366001
6banks busy for write cycles: 5128
7banks busy for read cycles: 83641
7banks busy for write cycles: 2295
8banks busy for read cycles: 8043
8banks busy for write cycles: 955

CPU 0 Branch Prediction Accuracy: 99.1323% MPKI: 3.09396 Average ROB Occupancy at Mispredict: 109.19
Branch types
NOT_BRANCH: 16085563 64.3423%
BRANCH_DIRECT_JUMP: 85874 0.343496%
BRANCH_INDIRECT: 0 0%
BRANCH_CONDITIONAL: 8744101 34.9764%
BRANCH_DIRECT_CALL: 42053 0.168212%
BRANCH_INDIRECT_CALL: 0 0%
BRANCH_RETURN: 42053 0.168212%
BRANCH_OTHER: 0 0%

DRAM PAGES: 1048576
Allocated PAGES: 48857
