
*** ChampSim Multicore Out-of-Order Simulator ***

Warmup Instructions: 25000000
Simulation Instructions: 25000000
Number of CPUs: 1
LLC sets: 2048
LLC ways: 16
Off-chip DRAM Size: 4096 MB Channels: 1 Width: 64-bit Data Rate: 6400 MT/s
CPU 0 runs given/traces/trace2.champsimtrace.xz
.xz
CPU 0 Bimodal branch predictor
BTB has LRU replacement policy
ITLB has LRU replacement policy
DTLB has LRU replacement policy
STLB has LRU replacement policy
L1I has LRU replacement policy
CPU 0 L1D Next-line prefetcher
L1D has LRU replacement policy
L2C has LRU replacement policy
LLC has LRU replacement policy
Heartbeat CPU 0 instructions: 10000002 cycles: 3733865 heartbeat IPC: 2.67819 cumulative IPC: 2.67819 (Simulation time: 0 hr 0 min 43 sec) 
Heartbeat CPU 0 instructions: 20000001 cycles: 7469022 heartbeat IPC: 2.67726 cumulative IPC: 2.67773 (Simulation time: 0 hr 1 min 25 sec) 

Warmup complete CPU 0 instructions: 25000001 cycles: 9335649 (Simulation time: 0 hr 1 min 42 sec) 

Heartbeat CPU 0 instructions: 30000001 cycles: 23005164 heartbeat IPC: 0.64366 cumulative IPC: 0.365777 (Simulation time: 0 hr 2 min 10 sec) 
Heartbeat CPU 0 instructions: 40000002 cycles: 50064026 heartbeat IPC: 0.369565 cumulative IPC: 0.368294 (Simulation time: 0 hr 3 min 6 sec) 
Retire attempted: 68059130 Failed due to ip: 884682 Failed due to non completion: 0 Retired instructions: 47500118
Heartbeat CPU 0 instructions: 50000000 cycles: 76632625 heartbeat IPC: 0.376384 cumulative IPC: 0.371488 (Simulation time: 0 hr 4 min 2 sec) 
Finished CPU 0 instructions: 25000000 cycles: 67296998 cumulative IPC: 0.371488 (Simulation time: 0 hr 4 min 2 sec) 

ChampSim completed all CPUs

Region of Interest Statistics

CPU 0 cumulative IPC: 0.371488 instructions: 25000000 cycles: 67296998
ITLB TOTAL     ACCESS:    4557459  HIT:    4557459  MISS:          0  HIT %:        100  MISS %:          0   MPKI: 0
ITLB LOAD TRANSLATION ACCESS:    4557459  HIT:    4557459  MISS:          0  HIT %:        100  MISS %:          0   MPKI: 0
ITLB PREFETCH  REQUESTED:          0  ISSUED:          0  USEFUL:          0  USELESS:          0
ITLB USEFUL LOAD PREFETCHES:          0 PREFETCH ISSUED TO LOWER LEVEL:          0  ACCURACY: -nan
ITLB TIMELY PREFETCHES:          0 LATE PREFETCHES: 0 DROPPED PREFETCHES: 0
ITLB PREFETCHES SAME FILL-ORIGIN LEVEL: 0 DIFFERENT FILL-ORIGIN LEVEL: 0
ITLB AVERAGE MISS LATENCY: -nan cycles
ITLB RQ	ACCESS:    4642871	FORWARD:          0	MERGED:      85413	TO_CACHE:    4557458

DTLB TOTAL     ACCESS:    3869373  HIT:    3835359  MISS:      34014  HIT %:    99.1209  MISS %:   0.879057   MPKI: 1.36056
DTLB LOAD TRANSLATION ACCESS:    3869373  HIT:    3835359  MISS:      34014  HIT %:    99.1209  MISS %:   0.879057   MPKI: 1.36056
DTLB PREFETCH  REQUESTED:          0  ISSUED:          0  USEFUL:          0  USELESS:          0
DTLB USEFUL LOAD PREFETCHES:          0 PREFETCH ISSUED TO LOWER LEVEL:          0  ACCURACY: -nan
DTLB TIMELY PREFETCHES:          0 LATE PREFETCHES: 0 DROPPED PREFETCHES: 0
DTLB PREFETCHES SAME FILL-ORIGIN LEVEL: 0 DIFFERENT FILL-ORIGIN LEVEL: 0
DTLB AVERAGE MISS LATENCY: 107.705 cycles
DTLB RQ	ACCESS:    4554067	FORWARD:          0	MERGED:     684564	TO_CACHE:    3869503

STLB TOTAL     ACCESS:    3055224  HIT:    3022571  MISS:      32653  HIT %:    98.9312  MISS %:    1.06876   MPKI: 1.30612
STLB LOAD TRANSLATION ACCESS:      34014  HIT:       1361  MISS:      32653  HIT %:    4.00129  MISS %:    95.9987   MPKI: 1.30612
STLB TRANSLATION FROM L1D PREFETCHER ACCESS:    3021210  HIT:    3021210  MISS:          0  HIT %:        100  MISS %:          0   MPKI: 0
STLB PREFETCH  REQUESTED:          0  ISSUED:          0  USEFUL:          0  USELESS:          0
STLB USEFUL LOAD PREFETCHES:          0 PREFETCH ISSUED TO LOWER LEVEL:          0  ACCURACY: -nan
STLB TIMELY PREFETCHES:          0 LATE PREFETCHES: 0 DROPPED PREFETCHES: 0
STLB PREFETCHES SAME FILL-ORIGIN LEVEL: 0 DIFFERENT FILL-ORIGIN LEVEL: 0
STLB AVERAGE MISS LATENCY: 102.807 cycles
STLB RQ	ACCESS:   14602492	FORWARD:          0	MERGED:   11547268	TO_CACHE:    3055224

STLB Hit, L1D data hit: 0
STLB Hit, L2C data hit: 0
STLB Hit, LLC data hit: 0
STLB Hit, LLC data miss: 0
STLB STLB hints to L2: 0
L1D TOTAL     ACCESS:   11310431  HIT:    9478955  MISS:    1831476  HIT %:    83.8072  MISS %:    16.1928   MPKI: 73.259
L1D LOAD      ACCESS:    4206614  HIT:    3927812  MISS:     278802  HIT %:    93.3723  MISS %:    6.62771   MPKI: 11.1521
L1D RFO       ACCESS:     333322  HIT:     333309  MISS:         13  HIT %:    99.9961  MISS %: 0.00390013   MPKI: 0.00052
L1D PREFETCH  ACCESS:    6770495  HIT:    5217834  MISS:    1552661  HIT %:    77.0672  MISS %:    22.9328   MPKI: 62.1064
AGUS PREFETCH L1 MISS: 0
L1D PREFETCH  REQUESTED:   34757139  ISSUED:   34728014  USEFUL:    1475916  USELESS:      76754
L1D USEFUL LOAD PREFETCHES:    1475916 PREFETCH ISSUED TO LOWER LEVEL:    1788402  ACCURACY: 82.5271
L1D TIMELY PREFETCHES:    1475916 LATE PREFETCHES: 235741 DROPPED PREFETCHES: 0
L1D PREFETCHES SAME FILL-ORIGIN LEVEL: 1788402 DIFFERENT FILL-ORIGIN LEVEL: 0
L1D AVERAGE MISS LATENCY: 120.511 cycles
L1D RQ	ACCESS:    8972948	FORWARD:          0	MERGED:    4750650	TO_CACHE:    4220741
L1D WQ	ACCESS:     370377	FORWARD:       1557	MERGED:      37051	TO_CACHE:     333326
L1D PQ	ACCESS:   20159536	FORWARD:          0	MERGED:    5591058	TO_CACHE:   14568478

L1D UNIQUE REGIONS ACCESSED: 0
L1D REGIONS CONFLICTS: 0
L1D Cross Page Prefetch Requests: 0
L1D Same Page Prefetch Requests: 51223727
L1D ROI Sum of L1D PQ occupancy: 204595207
L1D PREFETCHES PUSHED FROM L2C: 0
L1I TOTAL     ACCESS:    4642871  HIT:    4642871  MISS:          0  HIT %:        100  MISS %:          0   MPKI: 0
L1I LOAD      ACCESS:    4642871  HIT:    4642871  MISS:          0  HIT %:        100  MISS %:          0   MPKI: 0
L1I PREFETCH  REQUESTED:          0  ISSUED:          0  USEFUL:          0  USELESS:          0
L1I USEFUL LOAD PREFETCHES:          0 PREFETCH ISSUED TO LOWER LEVEL:          0  ACCURACY: -nan
L1I TIMELY PREFETCHES:          0 LATE PREFETCHES: 0 DROPPED PREFETCHES: 0
L1I PREFETCHES SAME FILL-ORIGIN LEVEL: 0 DIFFERENT FILL-ORIGIN LEVEL: 0
L1I AVERAGE MISS LATENCY: -nan cycles
L1I RQ	ACCESS:    6968066	FORWARD:          0	MERGED:    2325195	TO_CACHE:    4642871

BTB TOTAL     ACCESS:    5953193  HIT:    5953095  MISS:         98  HIT %:    99.9984  MISS %: 0.00164618   MPKI: 0.00392
BTB BRANCH_DIRECT_JUMP	ACCESS:      85874  HIT:      85848  MISS:         26
BTB BRANCH_INDIRECT	ACCESS:          0  HIT:          0  MISS:          0
BTB BRANCH_CONDITIONAL	ACCESS:    5783213  HIT:    5783164  MISS:         49
BTB BRANCH_DIRECT_CALL	ACCESS:      42053  HIT:      42043  MISS:         10
BTB BRANCH_INDIRECT_CALL	ACCESS:          0  HIT:          0  MISS:          0
BTB BRANCH_RETURN	ACCESS:      42053  HIT:      42040  MISS:         13
BTB BRANCH_OTHER ACCESS:          0  HIT:          0  MISS:          0

L2C TOTAL     ACCESS:    1867554  HIT:      66734  MISS:    1800820  HIT %:    3.57334  MISS %:    96.4267   MPKI: 72.0328
L2C LOAD      ACCESS:      43061  HIT:       5745  MISS:      37316  HIT %:    13.3415  MISS %:    86.6585   MPKI: 1.49264
L2C DATA LOAD MPKI: 1.49264
L2C INSTRUCTION LOAD MPKI: 0
L2C RFO       ACCESS:         13  HIT:          0  MISS:         13  HIT %:          0  MISS %:        100   MPKI: 0.00052
L2C PREFETCH  ACCESS:    1788402  HIT:      32361  MISS:    1756041  HIT %:    1.80949  MISS %:    98.1905   MPKI: 70.2416
AGUS PREFETCH L1 MISS: 0
L2C DATA PREFETCH MPKI: 70.2416
L2C INSTRUCTION PREFETCH MPKI: 0
L2C WRITEBACK ACCESS:       2812  HIT:       2795  MISS:         17  HIT %:    99.3954  MISS %:   0.604552   MPKI: 0.00068
L2C LOAD TRANSLATION ACCESS:      33266  HIT:      25833  MISS:       7433  HIT %:    77.6559  MISS %:    22.3441   MPKI: 0.29732
L2C PREFETCH  REQUESTED:          0  ISSUED:          0  USEFUL:       1700  USELESS:    1753887
L2C USEFUL LOAD PREFETCHES:       1700 PREFETCH ISSUED TO LOWER LEVEL:    1756041  ACCURACY: 0.0968087
L2C TIMELY PREFETCHES:       1700 LATE PREFETCHES: 0 DROPPED PREFETCHES: 0
L2C PREFETCHES SAME FILL-ORIGIN LEVEL: 0 DIFFERENT FILL-ORIGIN LEVEL: 0
L2C AVERAGE MISS LATENCY: 107.908 cycles
L2C RQ	ACCESS:      76340	FORWARD:          0	MERGED:          0	TO_CACHE:      76340
L2C WQ	ACCESS:       2812	FORWARD:          0	MERGED:          0	TO_CACHE:       2812
L2C PQ	ACCESS:    1788402	FORWARD:          0	MERGED:          0	TO_CACHE:    1788402

L2C Instructions Evicting Data 0
L2C Translations Evicting Data 7406
L2C Data Evicting Data 1785977
L2C Instructions Evicting Instructions 0
L2C Translations Evicting Instructions 0
L2C Data Evicting Instructions 0
L2C Instructions Evicting Translations 0
L2C Translations Evicting Translations 27
L2C Data Evicting Translations 7393
L2C Dense regions hint from L2: 0
PSCL5 TOTAL     ACCESS:      32653  HIT:      32653  MISS:          0  HIT %:        100  MISS %:          0   MPKI: 0
PSCL5 LOAD TRANSLATION ACCESS:      32653  HIT:      32653  MISS:          0  HIT %:        100  MISS %:          0   MPKI: 0
PSCL5 PREFETCH  REQUESTED:          0  ISSUED:          0  USEFUL:          0  USELESS:          0
PSCL5 USEFUL LOAD PREFETCHES:          0 PREFETCH ISSUED TO LOWER LEVEL:          0  ACCURACY: -nan
PSCL5 TIMELY PREFETCHES:          0 LATE PREFETCHES: 0 DROPPED PREFETCHES: 0
PSCL5 PREFETCHES SAME FILL-ORIGIN LEVEL: 0 DIFFERENT FILL-ORIGIN LEVEL: 0

PSCL4 TOTAL     ACCESS:      32653  HIT:      32653  MISS:          0  HIT %:        100  MISS %:          0   MPKI: 0
PSCL4 LOAD TRANSLATION ACCESS:      32653  HIT:      32653  MISS:          0  HIT %:        100  MISS %:          0   MPKI: 0
PSCL4 PREFETCH  REQUESTED:          0  ISSUED:          0  USEFUL:          0  USELESS:          0
PSCL4 USEFUL LOAD PREFETCHES:          0 PREFETCH ISSUED TO LOWER LEVEL:          0  ACCURACY: -nan
PSCL4 TIMELY PREFETCHES:          0 LATE PREFETCHES: 0 DROPPED PREFETCHES: 0
PSCL4 PREFETCHES SAME FILL-ORIGIN LEVEL: 0 DIFFERENT FILL-ORIGIN LEVEL: 0

PSCL3 TOTAL     ACCESS:      32653  HIT:      32653  MISS:          0  HIT %:        100  MISS %:          0   MPKI: 0
PSCL3 LOAD TRANSLATION ACCESS:      32653  HIT:      32653  MISS:          0  HIT %:        100  MISS %:          0   MPKI: 0
PSCL3 PREFETCH  REQUESTED:          0  ISSUED:          0  USEFUL:          0  USELESS:          0
PSCL3 USEFUL LOAD PREFETCHES:          0 PREFETCH ISSUED TO LOWER LEVEL:          0  ACCURACY: -nan
PSCL3 TIMELY PREFETCHES:          0 LATE PREFETCHES: 0 DROPPED PREFETCHES: 0
PSCL3 PREFETCHES SAME FILL-ORIGIN LEVEL: 0 DIFFERENT FILL-ORIGIN LEVEL: 0

PSCL2 TOTAL     ACCESS:      32653  HIT:      31942  MISS:        711  HIT %:    97.8226  MISS %:    2.17744   MPKI: 0.02844
PSCL2 LOAD TRANSLATION ACCESS:      32653  HIT:      31942  MISS:        711  HIT %:    97.8226  MISS %:    2.17744   MPKI: 0.02844
PSCL2 PREFETCH  REQUESTED:          0  ISSUED:          0  USEFUL:          0  USELESS:          0
PSCL2 USEFUL LOAD PREFETCHES:          0 PREFETCH ISSUED TO LOWER LEVEL:          0  ACCURACY: -nan
PSCL2 TIMELY PREFETCHES:          0 LATE PREFETCHES: 0 DROPPED PREFETCHES: 0
PSCL2 PREFETCHES SAME FILL-ORIGIN LEVEL: 0 DIFFERENT FILL-ORIGIN LEVEL: 0

LLC TOTAL     ACCESS:    1803572  HIT:       5557  MISS:    1798015  HIT %:   0.308111  MISS %:    99.6919   MPKI: 71.9206
LLC LOAD      ACCESS:      37316  HIT:        535  MISS:      36781  HIT %:     1.4337  MISS %:    98.5663   MPKI: 1.47124
LLC RFO       ACCESS:         13  HIT:          0  MISS:         13  HIT %:          0  MISS %:        100   MPKI: 0.00052
LLC PREFETCH  ACCESS:    1756041  HIT:       1936  MISS:    1754105  HIT %:   0.110248  MISS %:    99.8898   MPKI: 70.1642
AGUS PREFETCH L1 MISS: 0
LLC WRITEBACK ACCESS:       2769  HIT:       2764  MISS:          5  HIT %:    99.8194  MISS %:   0.180571   MPKI: 0.0002
LLC LOAD TRANSLATION ACCESS:       7433  HIT:        322  MISS:       7111  HIT %:    4.33203  MISS %:     95.668   MPKI: 0.28444
LLC PREFETCH  REQUESTED:          0  ISSUED:          0  USEFUL:         37  USELESS:    1752381
LLC USEFUL LOAD PREFETCHES:         37 PREFETCH ISSUED TO LOWER LEVEL:    1754105  ACCURACY: 0.00210934
LLC TIMELY PREFETCHES:         37 LATE PREFETCHES: 0 DROPPED PREFETCHES: 0
LLC PREFETCHES SAME FILL-ORIGIN LEVEL: 0 DIFFERENT FILL-ORIGIN LEVEL: 0
LLC AVERAGE MISS LATENCY: 77.9309 cycles
LLC RQ	ACCESS:      44762	FORWARD:          0	MERGED:          0	TO_CACHE:      44762
LLC WQ	ACCESS:       2769	FORWARD:          0	MERGED:          0	TO_CACHE:       2769
LLC PQ	ACCESS:    1756041	FORWARD:          0	MERGED:          0	TO_CACHE:    1756041

LLC Dense regions hint to LLC: 0

RAW hits: 3999
Loads Generated: 8976947
Loads sent to L1D: 8972948
Stores Generated: 370377
Stores sent to L1D: 370377
Major fault: 0 Minor fault: 48857
Allocated PAGES: 48857
CPU 0 L1D nextline prefetcher final stats
Degree: 5

DRAM Statistics
 CHANNEL 0
 RQ ROW_BUFFER_HIT:    1672248  ROW_BUFFER_MISS:     125762
 DBUS_CONGESTED:        348
 WQ ROW_BUFFER_HIT:        412  ROW_BUFFER_MISS:       2351  FULL:          0

 AVG_CONGESTED_CYCLE: 4
 All warmup complete: 2
Channel 0 Bank busy for read cycles: 0
Channel 0 Bank busy for write cycles: 0
Channel 0
Rank 0
0banks busy for read cycles: 16441968
0banks busy for write cycles: 1260
1banks busy for read cycles: 13997830
1banks busy for write cycles: 308245
2banks busy for read cycles: 27963620
2banks busy for write cycles: 146921
3banks busy for read cycles: 5004518
3banks busy for write cycles: 53942
4banks busy for read cycles: 921009
4banks busy for write cycles: 30821
5banks busy for read cycles: 696036
5banks busy for write cycles: 15402
6banks busy for read cycles: 1562423
6banks busy for write cycles: 8358
7banks busy for read cycles: 120589
7banks busy for write cycles: 3035
8banks busy for read cycles: 19803
8banks busy for write cycles: 1219

CPU 0 Branch Prediction Accuracy: 99.1323% MPKI: 3.09396 Average ROB Occupancy at Mispredict: 107.723
Branch types
NOT_BRANCH: 16085563 64.3423%
BRANCH_DIRECT_JUMP: 85874 0.343496%
BRANCH_INDIRECT: 0 0%
BRANCH_CONDITIONAL: 8744101 34.9764%
BRANCH_DIRECT_CALL: 42053 0.168212%
BRANCH_INDIRECT_CALL: 0 0%
BRANCH_RETURN: 42053 0.168212%
BRANCH_OTHER: 0 0%

DRAM PAGES: 1048576
Allocated PAGES: 48857
