
*** ChampSim Multicore Out-of-Order Simulator ***

Warmup Instructions: 25000000
Simulation Instructions: 25000000
Number of CPUs: 1
LLC sets: 2048
LLC ways: 16
Off-chip DRAM Size: 4096 MB Channels: 1 Width: 64-bit Data Rate: 6400 MT/s
CPU 0 runs given/traces/trace3.champsimtrace.xz
.xz
CPU 0 Bimodal branch predictor
BTB has LRU replacement policy
ITLB has LRU replacement policy
DTLB has LRU replacement policy
STLB has LRU replacement policy
L1I has LRU replacement policy
CPU 0 L1D Next-line prefetcher
L1D has LRU replacement policy
L2C has LRU replacement policy
LLC has LRU replacement policy
Heartbeat CPU 0 instructions: 10000001 cycles: 3807381 heartbeat IPC: 2.62648 cumulative IPC: 2.62648 (Simulation time: 0 hr 1 min 8 sec) 
Heartbeat CPU 0 instructions: 20000000 cycles: 7588469 heartbeat IPC: 2.64474 cumulative IPC: 2.63558 (Simulation time: 0 hr 2 min 17 sec) 

Warmup complete CPU 0 instructions: 25000004 cycles: 9508103 (Simulation time: 0 hr 2 min 52 sec) 

Heartbeat CPU 0 instructions: 30000001 cycles: 50674402 heartbeat IPC: 0.232094 cumulative IPC: 0.121459 (Simulation time: 0 hr 4 min 28 sec) 
Retire attempted: 68835878 Failed due to ip: 1128908 Failed due to non completion: 0 Retired instructions: 32469255
Heartbeat CPU 0 instructions: 40000002 cycles: 130729311 heartbeat IPC: 0.124914 cumulative IPC: 0.123741 (Simulation time: 0 hr 7 min 41 sec) 
Heartbeat CPU 0 instructions: 50000000 cycles: 212175635 heartbeat IPC: 0.12278 cumulative IPC: 0.123355 (Simulation time: 0 hr 10 min 54 sec) 
Finished CPU 0 instructions: 25000000 cycles: 202667534 cumulative IPC: 0.123355 (Simulation time: 0 hr 10 min 54 sec) 

ChampSim completed all CPUs

Region of Interest Statistics

CPU 0 cumulative IPC: 0.123355 instructions: 25000000 cycles: 202667534
ITLB TOTAL     ACCESS:    4088732  HIT:    4088732  MISS:          0  HIT %:        100  MISS %:          0   MPKI: 0
ITLB LOAD TRANSLATION ACCESS:    4088732  HIT:    4088732  MISS:          0  HIT %:        100  MISS %:          0   MPKI: 0
ITLB PREFETCH  REQUESTED:          0  ISSUED:          0  USEFUL:          0  USELESS:          0
ITLB USEFUL LOAD PREFETCHES:          0 PREFETCH ISSUED TO LOWER LEVEL:          0  ACCURACY: -nan
ITLB TIMELY PREFETCHES:          0 LATE PREFETCHES: 0 DROPPED PREFETCHES: 0
ITLB PREFETCHES SAME FILL-ORIGIN LEVEL: 0 DIFFERENT FILL-ORIGIN LEVEL: 0
ITLB AVERAGE MISS LATENCY: -nan cycles
ITLB RQ	ACCESS:    4139886	FORWARD:          0	MERGED:      51155	TO_CACHE:    4088731

DTLB TOTAL     ACCESS:    5217161  HIT:    3013049  MISS:    2204112  HIT %:    57.7527  MISS %:    42.2473   MPKI: 88.1645
DTLB LOAD TRANSLATION ACCESS:    5217161  HIT:    3013049  MISS:    2204112  HIT %:    57.7527  MISS %:    42.2473   MPKI: 88.1645
DTLB PREFETCH  REQUESTED:          0  ISSUED:          0  USEFUL:          0  USELESS:          0
DTLB USEFUL LOAD PREFETCHES:          0 PREFETCH ISSUED TO LOWER LEVEL:          0  ACCURACY: -nan
DTLB TIMELY PREFETCHES:          0 LATE PREFETCHES: 0 DROPPED PREFETCHES: 0
DTLB PREFETCHES SAME FILL-ORIGIN LEVEL: 0 DIFFERENT FILL-ORIGIN LEVEL: 0
DTLB AVERAGE MISS LATENCY: 11.7099 cycles
DTLB RQ	ACCESS:    5743826	FORWARD:          0	MERGED:     493219	TO_CACHE:    5250607

STLB TOTAL     ACCESS:    6103343  HIT:    6074419  MISS:      28924  HIT %:    99.5261  MISS %:   0.473904   MPKI: 1.15696
STLB LOAD TRANSLATION ACCESS:    2204112  HIT:    2175188  MISS:      28924  HIT %:    98.6877  MISS %:    1.31227   MPKI: 1.15696
STLB TRANSLATION FROM L1D PREFETCHER ACCESS:    3899231  HIT:    3899231  MISS:          0  HIT %:        100  MISS %:          0   MPKI: 0
STLB PREFETCH  REQUESTED:          0  ISSUED:          0  USEFUL:          0  USELESS:          0
STLB USEFUL LOAD PREFETCHES:          0 PREFETCH ISSUED TO LOWER LEVEL:          0  ACCURACY: -nan
STLB TIMELY PREFETCHES:          0 LATE PREFETCHES: 0 DROPPED PREFETCHES: 0
STLB PREFETCHES SAME FILL-ORIGIN LEVEL: 0 DIFFERENT FILL-ORIGIN LEVEL: 0
STLB AVERAGE MISS LATENCY: 179.301 cycles
STLB RQ	ACCESS:   19484316	FORWARD:          0	MERGED:   13380974	TO_CACHE:    6103342

STLB Hit, L1D data hit: 0
STLB Hit, L2C data hit: 0
STLB Hit, LLC data hit: 0
STLB Hit, LLC data miss: 0
STLB STLB hints to L2: 0
L1D TOTAL     ACCESS:   21336677  HIT:    8338861  MISS:   12997816  HIT %:    39.0823  MISS %:    60.9177   MPKI: 519.913
L1D LOAD      ACCESS:    5230200  HIT:    2180694  MISS:    3049506  HIT %:    41.6943  MISS %:    58.3057   MPKI: 121.98
L1D RFO       ACCESS:     420204  HIT:     412311  MISS:       7893  HIT %:    98.1216  MISS %:    1.87837   MPKI: 0.31572
L1D PREFETCH  ACCESS:   15686273  HIT:    5745856  MISS:    9940417  HIT %:    36.6298  MISS %:    63.3702   MPKI: 397.617
AGUS PREFETCH L1 MISS: 0
L1D PREFETCH  REQUESTED:   42392435  ISSUED:   38342126  USEFUL:     920921  USELESS:    9019398
L1D USEFUL LOAD PREFETCHES:     920921 PREFETCH ISSUED TO LOWER LEVEL:   10277191  ACCURACY: 8.96082
L1D TIMELY PREFETCHES:     920921 LATE PREFETCHES: 336750 DROPPED PREFETCHES: 0
L1D PREFETCHES SAME FILL-ORIGIN LEVEL: 10277191 DIFFERENT FILL-ORIGIN LEVEL: 0
L1D AVERAGE MISS LATENCY: 160.724 cycles
L1D RQ	ACCESS:    8954207	FORWARD:          0	MERGED:    3587122	TO_CACHE:    5299577
L1D WQ	ACCESS:     459661	FORWARD:      71502	MERGED:      15412	TO_CACHE:     444249
L1D PQ	ACCESS:   21061922	FORWARD:          0	MERGED:    3777724	TO_CACHE:   17280204

L1D UNIQUE REGIONS ACCESSED: 0
L1D REGIONS CONFLICTS: 0
L1D Cross Page Prefetch Requests: 0
L1D Same Page Prefetch Requests: 36226683
L1D ROI Sum of L1D PQ occupancy: 921394577
L1D PREFETCHES PUSHED FROM L2C: 0
L1I TOTAL     ACCESS:    4139887  HIT:    4139887  MISS:          0  HIT %:        100  MISS %:          0   MPKI: 0
L1I LOAD      ACCESS:    4139887  HIT:    4139887  MISS:          0  HIT %:        100  MISS %:          0   MPKI: 0
L1I PREFETCH  REQUESTED:          0  ISSUED:          0  USEFUL:          0  USELESS:          0
L1I USEFUL LOAD PREFETCHES:          0 PREFETCH ISSUED TO LOWER LEVEL:          0  ACCURACY: -nan
L1I TIMELY PREFETCHES:          0 LATE PREFETCHES: 0 DROPPED PREFETCHES: 0
L1I PREFETCHES SAME FILL-ORIGIN LEVEL: 0 DIFFERENT FILL-ORIGIN LEVEL: 0
L1I AVERAGE MISS LATENCY: -nan cycles
L1I RQ	ACCESS:    5563092	FORWARD:          0	MERGED:    1423206	TO_CACHE:    4139886

BTB TOTAL     ACCESS:    7381233  HIT:    7359090  MISS:      22143  HIT %:       99.7  MISS %:   0.299991   MPKI: 0.88572
BTB BRANCH_DIRECT_JUMP	ACCESS:     954613  HIT:     954578  MISS:         35
BTB BRANCH_INDIRECT	ACCESS:          0  HIT:          0  MISS:          0
BTB BRANCH_CONDITIONAL	ACCESS:    6254608  HIT:    6254529  MISS:         79
BTB BRANCH_DIRECT_CALL	ACCESS:      79755  HIT:      79739  MISS:         16
BTB BRANCH_INDIRECT_CALL	ACCESS:       6250  HIT:       6242  MISS:          8
BTB BRANCH_RETURN	ACCESS:      86007  HIT:      64002  MISS:      22005
BTB BRANCH_OTHER ACCESS:          0  HIT:          0  MISS:          0

L2C TOTAL     ACCESS:   13116587  HIT:    1811151  MISS:   11305436  HIT %:    13.8081  MISS %:    86.1919   MPKI: 452.217
L2C LOAD      ACCESS:    2712742  HIT:     395126  MISS:    2317616  HIT %:    14.5656  MISS %:    85.4344   MPKI: 92.7046
L2C DATA LOAD MPKI: 92.7046
L2C INSTRUCTION LOAD MPKI: 0
L2C RFO       ACCESS:       7879  HIT:        735  MISS:       7144  HIT %:    9.32859  MISS %:    90.6714   MPKI: 0.28576
L2C PREFETCH  ACCESS:   10277176  HIT:    1305928  MISS:    8971248  HIT %:    12.7071  MISS %:    87.2929   MPKI: 358.85
AGUS PREFETCH L1 MISS: 0
L2C DATA PREFETCH MPKI: 358.85
L2C INSTRUCTION PREFETCH MPKI: 0
L2C WRITEBACK ACCESS:      89703  HIT:      89703  MISS:          0  HIT %:        100  MISS %:          0   MPKI: 0
L2C LOAD TRANSLATION ACCESS:      29087  HIT:      19659  MISS:       9428  HIT %:    67.5869  MISS %:    32.4131   MPKI: 0.37712
L2C PREFETCH  REQUESTED:          0  ISSUED:          0  USEFUL:     190125  USELESS:    8779646
L2C USEFUL LOAD PREFETCHES:     190125 PREFETCH ISSUED TO LOWER LEVEL:    8971258  ACCURACY: 2.11927
L2C TIMELY PREFETCHES:     190125 LATE PREFETCHES: 0 DROPPED PREFETCHES: 0
L2C PREFETCHES SAME FILL-ORIGIN LEVEL: 0 DIFFERENT FILL-ORIGIN LEVEL: 0
L2C AVERAGE MISS LATENCY: 167.002 cycles
L2C RQ	ACCESS:    2749722	FORWARD:          0	MERGED:          0	TO_CACHE:    2749708
L2C WQ	ACCESS:      89703	FORWARD:         19	MERGED:          0	TO_CACHE:      89703
L2C PQ	ACCESS:   10277191	FORWARD:          0	MERGED:          0	TO_CACHE:   10277186

L2C Instructions Evicting Data 0
L2C Translations Evicting Data 9422
L2C Data Evicting Data 11286589
L2C Instructions Evicting Instructions 0
L2C Translations Evicting Instructions 0
L2C Data Evicting Instructions 0
L2C Instructions Evicting Translations 0
L2C Translations Evicting Translations 6
L2C Data Evicting Translations 9419
L2C Dense regions hint from L2: 0
PSCL5 TOTAL     ACCESS:      28924  HIT:      28924  MISS:          0  HIT %:        100  MISS %:          0   MPKI: 0
PSCL5 LOAD TRANSLATION ACCESS:      28924  HIT:      28924  MISS:          0  HIT %:        100  MISS %:          0   MPKI: 0
PSCL5 PREFETCH  REQUESTED:          0  ISSUED:          0  USEFUL:          0  USELESS:          0
PSCL5 USEFUL LOAD PREFETCHES:          0 PREFETCH ISSUED TO LOWER LEVEL:          0  ACCURACY: -nan
PSCL5 TIMELY PREFETCHES:          0 LATE PREFETCHES: 0 DROPPED PREFETCHES: 0
PSCL5 PREFETCHES SAME FILL-ORIGIN LEVEL: 0 DIFFERENT FILL-ORIGIN LEVEL: 0

PSCL4 TOTAL     ACCESS:      28924  HIT:      28924  MISS:          0  HIT %:        100  MISS %:          0   MPKI: 0
PSCL4 LOAD TRANSLATION ACCESS:      28924  HIT:      28924  MISS:          0  HIT %:        100  MISS %:          0   MPKI: 0
PSCL4 PREFETCH  REQUESTED:          0  ISSUED:          0  USEFUL:          0  USELESS:          0
PSCL4 USEFUL LOAD PREFETCHES:          0 PREFETCH ISSUED TO LOWER LEVEL:          0  ACCURACY: -nan
PSCL4 TIMELY PREFETCHES:          0 LATE PREFETCHES: 0 DROPPED PREFETCHES: 0
PSCL4 PREFETCHES SAME FILL-ORIGIN LEVEL: 0 DIFFERENT FILL-ORIGIN LEVEL: 0

PSCL3 TOTAL     ACCESS:      28924  HIT:      28924  MISS:          0  HIT %:        100  MISS %:          0   MPKI: 0
PSCL3 LOAD TRANSLATION ACCESS:      28924  HIT:      28924  MISS:          0  HIT %:        100  MISS %:          0   MPKI: 0
PSCL3 PREFETCH  REQUESTED:          0  ISSUED:          0  USEFUL:          0  USELESS:          0
PSCL3 USEFUL LOAD PREFETCHES:          0 PREFETCH ISSUED TO LOWER LEVEL:          0  ACCURACY: -nan
PSCL3 TIMELY PREFETCHES:          0 LATE PREFETCHES: 0 DROPPED PREFETCHES: 0
PSCL3 PREFETCHES SAME FILL-ORIGIN LEVEL: 0 DIFFERENT FILL-ORIGIN LEVEL: 0

PSCL2 TOTAL     ACCESS:      28924  HIT:      28625  MISS:        299  HIT %:    98.9663  MISS %:    1.03374   MPKI: 0.01196
PSCL2 LOAD TRANSLATION ACCESS:      28924  HIT:      28625  MISS:        299  HIT %:    98.9663  MISS %:    1.03374   MPKI: 0.01196
PSCL2 PREFETCH  REQUESTED:          0  ISSUED:          0  USEFUL:          0  USELESS:          0
PSCL2 USEFUL LOAD PREFETCHES:          0 PREFETCH ISSUED TO LOWER LEVEL:          0  ACCURACY: -nan
PSCL2 TIMELY PREFETCHES:          0 LATE PREFETCHES: 0 DROPPED PREFETCHES: 0
PSCL2 PREFETCHES SAME FILL-ORIGIN LEVEL: 0 DIFFERENT FILL-ORIGIN LEVEL: 0

LLC TOTAL     ACCESS:   11384006  HIT:    5098061  MISS:    6285945  HIT %:    44.7827  MISS %:    55.2173   MPKI: 251.438
LLC LOAD      ACCESS:    2317615  HIT:    1089240  MISS:    1228375  HIT %:    46.9983  MISS %:    53.0017   MPKI: 49.135
LLC RFO       ACCESS:       7144  HIT:       2798  MISS:       4346  HIT %:    39.1657  MISS %:    60.8343   MPKI: 0.17384
LLC PREFETCH  ACCESS:    8971247  HIT:    3926429  MISS:    5044818  HIT %:    43.7668  MISS %:    56.2332   MPKI: 201.793
AGUS PREFETCH L1 MISS: 0
LLC WRITEBACK ACCESS:      78572  HIT:      78551  MISS:         21  HIT %:    99.9733  MISS %:  0.0267271   MPKI: 0.00084
LLC LOAD TRANSLATION ACCESS:       9428  HIT:       1043  MISS:       8385  HIT %:    11.0628  MISS %:    88.9372   MPKI: 0.3354
LLC PREFETCH  REQUESTED:          0  ISSUED:          0  USEFUL:     199757  USELESS:    4840265
LLC USEFUL LOAD PREFETCHES:     199757 PREFETCH ISSUED TO LOWER LEVEL:    5044827  ACCURACY: 3.95964
LLC TIMELY PREFETCHES:     199757 LATE PREFETCHES: 0 DROPPED PREFETCHES: 0
LLC PREFETCHES SAME FILL-ORIGIN LEVEL: 0 DIFFERENT FILL-ORIGIN LEVEL: 0
LLC AVERAGE MISS LATENCY: 245.701 cycles
LLC RQ	ACCESS:    2334188	FORWARD:          0	MERGED:          0	TO_CACHE:    2334187
LLC WQ	ACCESS:      78572	FORWARD:          3	MERGED:          0	TO_CACHE:      78572
LLC PQ	ACCESS:    8971258	FORWARD:          0	MERGED:          0	TO_CACHE:    8971256

LLC Dense regions hint to LLC: 0

RAW hits: 60120
Loads Generated: 9014327
Loads sent to L1D: 8954207
Stores Generated: 459660
Stores sent to L1D: 459661
Major fault: 0 Minor fault: 44120
Allocated PAGES: 44120
CPU 0 L1D nextline prefetcher final stats
Degree: 5

DRAM Statistics
 CHANNEL 0
 RQ ROW_BUFFER_HIT:     322846  ROW_BUFFER_MISS:    5962004
 DBUS_CONGESTED:         83
 WQ ROW_BUFFER_HIT:      15196  ROW_BUFFER_MISS:      43146  FULL:          0

 AVG_CONGESTED_CYCLE: 4
 All warmup complete: 2
Channel 0 Bank busy for read cycles: 0
Channel 0 Bank busy for write cycles: 0
Channel 0
Rank 0
0banks busy for read cycles: 14986321
0banks busy for write cycles: 7493
1banks busy for read cycles: 16260438
1banks busy for write cycles: 2818328
2banks busy for read cycles: 14807893
2banks busy for write cycles: 1572582
3banks busy for read cycles: 14619375
3banks busy for write cycles: 1026204
4banks busy for read cycles: 16768205
4banks busy for write cycles: 714419
5banks busy for read cycles: 24807044
5banks busy for write cycles: 493983
6banks busy for read cycles: 37763287
6banks busy for write cycles: 368361
7banks busy for read cycles: 32604528
7banks busy for write cycles: 338155
8banks busy for read cycles: 21907282
8banks busy for write cycles: 803637

CPU 0 Branch Prediction Accuracy: 96.3142% MPKI: 11.2642 Average ROB Occupancy at Mispredict: 47.734
Branch types
NOT_BRANCH: 17359361 69.4374%
BRANCH_DIRECT_JUMP: 954613 3.81845%
BRANCH_INDIRECT: 0 0%
BRANCH_CONDITIONAL: 6513665 26.0547%
BRANCH_DIRECT_CALL: 79755 0.31902%
BRANCH_INDIRECT_CALL: 6250 0.025%
BRANCH_RETURN: 86007 0.344028%
BRANCH_OTHER: 0 0%

DRAM PAGES: 1048576
Allocated PAGES: 44120
