
*** ChampSim Multicore Out-of-Order Simulator ***

Warmup Instructions: 25000000
Simulation Instructions: 25000000
Number of CPUs: 1
LLC sets: 2048
LLC ways: 16
Off-chip DRAM Size: 4096 MB Channels: 1 Width: 64-bit Data Rate: 6400 MT/s
CPU 0 runs given/traces/trace3.champsimtrace.xz
.xz
CPU 0 Bimodal branch predictor
BTB has LRU replacement policy
ITLB has LRU replacement policy
DTLB has LRU replacement policy
STLB has LRU replacement policy
L1I has LRU replacement policy
CPU 0 L1D Optimized prefetcher
L1D has LRU replacement policy
L2C has LRU replacement policy
LLC has LRU replacement policy
Heartbeat CPU 0 instructions: 10000001 cycles: 3773639 heartbeat IPC: 2.64996 cumulative IPC: 2.64996 (Simulation time: 0 hr 0 min 34 sec) 
Heartbeat CPU 0 instructions: 20000000 cycles: 7519176 heartbeat IPC: 2.66984 cumulative IPC: 2.65987 (Simulation time: 0 hr 1 min 8 sec) 

Warmup complete CPU 0 instructions: 25000004 cycles: 9422659 (Simulation time: 0 hr 1 min 25 sec) 

IP stride coverage after phase end: 0.216806 weight: 0.206787
CPLX coverage after phase end: 0.25019 weight: 0.219881
NL stride coverage after phase end: 0.204608 weight: 0.154511
Best prefetcher: 1
Heartbeat CPU 0 instructions: 30000001 cycles: 41253849 heartbeat IPC: 0.296431 cumulative IPC: 0.157079 (Simulation time: 0 hr 2 min 0 sec) 
Heartbeat CPU 0 instructions: 40000001 cycles: 104918101 heartbeat IPC: 0.157074 cumulative IPC: 0.157076 (Simulation time: 0 hr 3 min 8 sec) 
Heartbeat CPU 0 instructions: 50000000 cycles: 171898651 heartbeat IPC: 0.149297 cumulative IPC: 0.153869 (Simulation time: 0 hr 4 min 17 sec) 
Finished CPU 0 instructions: 25000000 cycles: 162475994 cumulative IPC: 0.153869 (Simulation time: 0 hr 4 min 17 sec) 

ChampSim completed all CPUs

Region of Interest Statistics

CPU 0 cumulative IPC: 0.153869 instructions: 25000000 cycles: 162475994
ITLB TOTAL     ACCESS:    4062224  HIT:    4062224  MISS:          0  HIT %:        100  MISS %:          0   MPKI: 0
ITLB LOAD TRANSLATION ACCESS:    4062224  HIT:    4062224  MISS:          0  HIT %:        100  MISS %:          0   MPKI: 0
ITLB PREFETCH  REQUESTED:          0  ISSUED:          0  USEFUL:          0  USELESS:          0
ITLB USEFUL LOAD PREFETCHES:          0 PREFETCH ISSUED TO LOWER LEVEL:          0  ACCURACY: -nan
ITLB TIMELY PREFETCHES:          0 LATE PREFETCHES: 0 DROPPED PREFETCHES: 0
ITLB PREFETCHES SAME FILL-ORIGIN LEVEL: 0 DIFFERENT FILL-ORIGIN LEVEL: 0
ITLB AVERAGE MISS LATENCY: -nan cycles
ITLB RQ	ACCESS:    4113412	FORWARD:          0	MERGED:      51189	TO_CACHE:    4062223

DTLB TOTAL     ACCESS:    5238470  HIT:    3034151  MISS:    2204319  HIT %:    57.9206  MISS %:    42.0794   MPKI: 88.1728
DTLB LOAD TRANSLATION ACCESS:    5238470  HIT:    3034151  MISS:    2204319  HIT %:    57.9206  MISS %:    42.0794   MPKI: 88.1728
DTLB PREFETCH  REQUESTED:          0  ISSUED:          0  USEFUL:          0  USELESS:          0
DTLB USEFUL LOAD PREFETCHES:          0 PREFETCH ISSUED TO LOWER LEVEL:          0  ACCURACY: -nan
DTLB TIMELY PREFETCHES:          0 LATE PREFETCHES: 0 DROPPED PREFETCHES: 0
DTLB PREFETCHES SAME FILL-ORIGIN LEVEL: 0 DIFFERENT FILL-ORIGIN LEVEL: 0
DTLB AVERAGE MISS LATENCY: 10.9674 cycles
DTLB RQ	ACCESS:    5766068	FORWARD:          0	MERGED:     494244	TO_CACHE:    5271824

STLB TOTAL     ACCESS:    3251941  HIT:    3222909  MISS:      29032  HIT %:    99.1072  MISS %:   0.892759   MPKI: 1.16128
STLB LOAD TRANSLATION ACCESS:    2204319  HIT:    2175287  MISS:      29032  HIT %:    98.6829  MISS %:    1.31705   MPKI: 1.16128
STLB TRANSLATION FROM L1D PREFETCHER ACCESS:    1047622  HIT:    1047622  MISS:          0  HIT %:        100  MISS %:          0   MPKI: 0
STLB PREFETCH  REQUESTED:          0  ISSUED:          0  USEFUL:          0  USELESS:          0
STLB USEFUL LOAD PREFETCHES:          0 PREFETCH ISSUED TO LOWER LEVEL:          0  ACCURACY: -nan
STLB TIMELY PREFETCHES:          0 LATE PREFETCHES: 0 DROPPED PREFETCHES: 0
STLB PREFETCHES SAME FILL-ORIGIN LEVEL: 0 DIFFERENT FILL-ORIGIN LEVEL: 0
STLB AVERAGE MISS LATENCY: 134.649 cycles
STLB RQ	ACCESS:    3632519	FORWARD:          0	MERGED:     380578	TO_CACHE:    3251941

STLB Hit, L1D data hit: 0
STLB Hit, L2C data hit: 0
STLB Hit, LLC data hit: 0
STLB Hit, LLC data miss: 0
STLB STLB hints to L2: 0
L1D TOTAL     ACCESS:    6082640  HIT:    2078186  MISS:    4004454  HIT %:    34.1659  MISS %:    65.8341   MPKI: 160.178
L1D LOAD      ACCESS:    5169489  HIT:    1607809  MISS:    3561680  HIT %:    31.1019  MISS %:    68.8981   MPKI: 142.467
L1D RFO       ACCESS:     424022  HIT:     416162  MISS:       7860  HIT %:    98.1463  MISS %:    1.85368   MPKI: 0.3144
L1D PREFETCH  ACCESS:     489129  HIT:      54215  MISS:     434914  HIT %:     11.084  MISS %:     88.916   MPKI: 17.3966
AGUS PREFETCH L1 MISS: 0
L1D PREFETCH  REQUESTED:    2893292  ISSUED:    2878804  USEFUL:     314713  USELESS:     120180
L1D USEFUL LOAD PREFETCHES:     314713 PREFETCH ISSUED TO LOWER LEVEL:    1002511  ACCURACY: 31.3925
L1D TIMELY PREFETCHES:     314713 LATE PREFETCHES: 567595 DROPPED PREFETCHES: 0
L1D PREFETCHES SAME FILL-ORIGIN LEVEL: 1002511 DIFFERENT FILL-ORIGIN LEVEL: 0
L1D AVERAGE MISS LATENCY: 115.649 cycles
L1D RQ	ACCESS:    8951662	FORWARD:          0	MERGED:    3563797	TO_CACHE:    5322945
L1D WQ	ACCESS:     459661	FORWARD:      64969	MERGED:      16538	TO_CACHE:     443123
L1D PQ	ACCESS:    1450604	FORWARD:          0	MERGED:      22355	TO_CACHE:    1428200

L1D UNIQUE REGIONS ACCESSED: 0
L1D REGIONS CONFLICTS: 0
L1D Cross Page Prefetch Requests: 0
L1D Same Page Prefetch Requests: 1450604
L1D ROI Sum of L1D PQ occupancy: 20024837
L1D PREFETCHES PUSHED FROM L2C: 0
L1I TOTAL     ACCESS:    4113413  HIT:    4113413  MISS:          0  HIT %:        100  MISS %:          0   MPKI: 0
L1I LOAD      ACCESS:    4113413  HIT:    4113413  MISS:          0  HIT %:        100  MISS %:          0   MPKI: 0
L1I PREFETCH  REQUESTED:          0  ISSUED:          0  USEFUL:          0  USELESS:          0
L1I USEFUL LOAD PREFETCHES:          0 PREFETCH ISSUED TO LOWER LEVEL:          0  ACCURACY: -nan
L1I TIMELY PREFETCHES:          0 LATE PREFETCHES: 0 DROPPED PREFETCHES: 0
L1I PREFETCHES SAME FILL-ORIGIN LEVEL: 0 DIFFERENT FILL-ORIGIN LEVEL: 0
L1I AVERAGE MISS LATENCY: -nan cycles
L1I RQ	ACCESS:    5521647	FORWARD:          0	MERGED:    1408235	TO_CACHE:    4113412

BTB TOTAL     ACCESS:    7381233  HIT:    7359090  MISS:      22143  HIT %:       99.7  MISS %:   0.299991   MPKI: 0.88572
BTB BRANCH_DIRECT_JUMP	ACCESS:     954613  HIT:     954578  MISS:         35
BTB BRANCH_INDIRECT	ACCESS:          0  HIT:          0  MISS:          0
BTB BRANCH_CONDITIONAL	ACCESS:    6254608  HIT:    6254529  MISS:         79
BTB BRANCH_DIRECT_CALL	ACCESS:      79755  HIT:      79739  MISS:         16
BTB BRANCH_INDIRECT_CALL	ACCESS:       6250  HIT:       6242  MISS:          8
BTB BRANCH_RETURN	ACCESS:      86007  HIT:      64002  MISS:      22005
BTB BRANCH_OTHER ACCESS:          0  HIT:          0  MISS:          0

L2C TOTAL     ACCESS:    4113477  HIT:     505432  MISS:    3608045  HIT %:    12.2872  MISS %:    87.7128   MPKI: 144.322
L2C LOAD      ACCESS:    2994080  HIT:     397358  MISS:    2596722  HIT %:    13.2715  MISS %:    86.7285   MPKI: 103.869
L2C DATA LOAD MPKI: 103.869
L2C INSTRUCTION LOAD MPKI: 0
L2C RFO       ACCESS:       7859  HIT:        680  MISS:       7179  HIT %:     8.6525  MISS %:    91.3475   MPKI: 0.28716
L2C PREFETCH  ACCESS:    1002510  HIT:       7448  MISS:     995062  HIT %:   0.742935  MISS %:    99.2571   MPKI: 39.8025
AGUS PREFETCH L1 MISS: 0
L2C DATA PREFETCH MPKI: 39.8025
L2C INSTRUCTION PREFETCH MPKI: 0
L2C WRITEBACK ACCESS:      79831  HIT:      79831  MISS:          0  HIT %:        100  MISS %:          0   MPKI: 0
L2C LOAD TRANSLATION ACCESS:      29197  HIT:      20115  MISS:       9082  HIT %:    68.8941  MISS %:    31.1059   MPKI: 0.36328
L2C PREFETCH  REQUESTED:          0  ISSUED:          0  USEFUL:       4247  USELESS:     988665
L2C USEFUL LOAD PREFETCHES:       4247 PREFETCH ISSUED TO LOWER LEVEL:     995063  ACCURACY: 0.426807
L2C TIMELY PREFETCHES:       4247 LATE PREFETCHES: 0 DROPPED PREFETCHES: 0
L2C PREFETCHES SAME FILL-ORIGIN LEVEL: 0 DIFFERENT FILL-ORIGIN LEVEL: 0
L2C AVERAGE MISS LATENCY: 111.835 cycles
L2C RQ	ACCESS:    3031142	FORWARD:          0	MERGED:          0	TO_CACHE:    3031137
L2C WQ	ACCESS:      79831	FORWARD:          5	MERGED:          0	TO_CACHE:      79831
L2C PQ	ACCESS:    1002511	FORWARD:          0	MERGED:          0	TO_CACHE:    1002511

L2C Instructions Evicting Data 0
L2C Translations Evicting Data 9063
L2C Data Evicting Data 3589917
L2C Instructions Evicting Instructions 0
L2C Translations Evicting Instructions 0
L2C Data Evicting Instructions 0
L2C Instructions Evicting Translations 0
L2C Translations Evicting Translations 19
L2C Data Evicting Translations 9046
L2C Dense regions hint from L2: 0
PSCL5 TOTAL     ACCESS:      29032  HIT:      29032  MISS:          0  HIT %:        100  MISS %:          0   MPKI: 0
PSCL5 LOAD TRANSLATION ACCESS:      29032  HIT:      29032  MISS:          0  HIT %:        100  MISS %:          0   MPKI: 0
PSCL5 PREFETCH  REQUESTED:          0  ISSUED:          0  USEFUL:          0  USELESS:          0
PSCL5 USEFUL LOAD PREFETCHES:          0 PREFETCH ISSUED TO LOWER LEVEL:          0  ACCURACY: -nan
PSCL5 TIMELY PREFETCHES:          0 LATE PREFETCHES: 0 DROPPED PREFETCHES: 0
PSCL5 PREFETCHES SAME FILL-ORIGIN LEVEL: 0 DIFFERENT FILL-ORIGIN LEVEL: 0

PSCL4 TOTAL     ACCESS:      29032  HIT:      29032  MISS:          0  HIT %:        100  MISS %:          0   MPKI: 0
PSCL4 LOAD TRANSLATION ACCESS:      29032  HIT:      29032  MISS:          0  HIT %:        100  MISS %:          0   MPKI: 0
PSCL4 PREFETCH  REQUESTED:          0  ISSUED:          0  USEFUL:          0  USELESS:          0
PSCL4 USEFUL LOAD PREFETCHES:          0 PREFETCH ISSUED TO LOWER LEVEL:          0  ACCURACY: -nan
PSCL4 TIMELY PREFETCHES:          0 LATE PREFETCHES: 0 DROPPED PREFETCHES: 0
PSCL4 PREFETCHES SAME FILL-ORIGIN LEVEL: 0 DIFFERENT FILL-ORIGIN LEVEL: 0

PSCL3 TOTAL     ACCESS:      29032  HIT:      29032  MISS:          0  HIT %:        100  MISS %:          0   MPKI: 0
PSCL3 LOAD TRANSLATION ACCESS:      29032  HIT:      29032  MISS:          0  HIT %:        100  MISS %:          0   MPKI: 0
PSCL3 PREFETCH  REQUESTED:          0  ISSUED:          0  USEFUL:          0  USELESS:          0
PSCL3 USEFUL LOAD PREFETCHES:          0 PREFETCH ISSUED TO LOWER LEVEL:          0  ACCURACY: -nan
PSCL3 TIMELY PREFETCHES:          0 LATE PREFETCHES: 0 DROPPED PREFETCHES: 0
PSCL3 PREFETCHES SAME FILL-ORIGIN LEVEL: 0 DIFFERENT FILL-ORIGIN LEVEL: 0

PSCL2 TOTAL     ACCESS:      29032  HIT:      28731  MISS:        301  HIT %:    98.9632  MISS %:    1.03679   MPKI: 0.01204
PSCL2 LOAD TRANSLATION ACCESS:      29032  HIT:      28731  MISS:        301  HIT %:    98.9632  MISS %:    1.03679   MPKI: 0.01204
PSCL2 PREFETCH  REQUESTED:          0  ISSUED:          0  USEFUL:          0  USELESS:          0
PSCL2 USEFUL LOAD PREFETCHES:          0 PREFETCH ISSUED TO LOWER LEVEL:          0  ACCURACY: -nan
PSCL2 TIMELY PREFETCHES:          0 LATE PREFETCHES: 0 DROPPED PREFETCHES: 0
PSCL2 PREFETCHES SAME FILL-ORIGIN LEVEL: 0 DIFFERENT FILL-ORIGIN LEVEL: 0

LLC TOTAL     ACCESS:    3683954  HIT:    1591593  MISS:    2092361  HIT %:    43.2034  MISS %:    56.7966   MPKI: 83.6944
LLC LOAD      ACCESS:    2596721  HIT:    1481008  MISS:    1115713  HIT %:    57.0338  MISS %:    42.9662   MPKI: 44.6285
LLC RFO       ACCESS:       7179  HIT:       6038  MISS:       1141  HIT %:    84.1064  MISS %:    15.8936   MPKI: 0.04564
LLC PREFETCH  ACCESS:     995062  HIT:      24829  MISS:     970233  HIT %:    2.49522  MISS %:    97.5048   MPKI: 38.8093
AGUS PREFETCH L1 MISS: 0
LLC WRITEBACK ACCESS:      75910  HIT:      75799  MISS:        111  HIT %:    99.8538  MISS %:   0.146226   MPKI: 0.00444
LLC LOAD TRANSLATION ACCESS:       9082  HIT:       3919  MISS:       5163  HIT %:    43.1513  MISS %:    56.8487   MPKI: 0.20652
LLC PREFETCH  REQUESTED:          0  ISSUED:          0  USEFUL:       5858  USELESS:     952112
LLC USEFUL LOAD PREFETCHES:       5858 PREFETCH ISSUED TO LOWER LEVEL:     970234  ACCURACY: 0.603772
LLC TIMELY PREFETCHES:       5858 LATE PREFETCHES: 0 DROPPED PREFETCHES: 0
LLC PREFETCHES SAME FILL-ORIGIN LEVEL: 0 DIFFERENT FILL-ORIGIN LEVEL: 0
LLC AVERAGE MISS LATENCY: 140.368 cycles
LLC RQ	ACCESS:    2612984	FORWARD:          0	MERGED:          0	TO_CACHE:    2612983
LLC WQ	ACCESS:      75910	FORWARD:          1	MERGED:          0	TO_CACHE:      75910
LLC PQ	ACCESS:     995063	FORWARD:          0	MERGED:          0	TO_CACHE:     995063

LLC Dense regions hint to LLC: 0

RAW hits: 62665
Loads Generated: 9014327
Loads sent to L1D: 8951662
Stores Generated: 459660
Stores sent to L1D: 459661
Major fault: 0 Minor fault: 44120
Allocated PAGES: 44120
CPU 0 L1D optimized prefetcher final stats
Degree: 5
Total loads11802567

DRAM Statistics
 CHANNEL 0
 RQ ROW_BUFFER_HIT:     881029  ROW_BUFFER_MISS:    1211189
 DBUS_CONGESTED:        331
 WQ ROW_BUFFER_HIT:      11268  ROW_BUFFER_MISS:      28685  FULL:          0

 AVG_CONGESTED_CYCLE: 4
 All warmup complete: 2
Channel 0 Bank busy for read cycles: 0
Channel 0 Bank busy for write cycles: 0
Channel 0
Rank 0
0banks busy for read cycles: 52845953
0banks busy for write cycles: 14911
1banks busy for read cycles: 45714621
1banks busy for write cycles: 2952862
2banks busy for read cycles: 27547622
2banks busy for write cycles: 601647
3banks busy for read cycles: 15627666
3banks busy for write cycles: 256951
4banks busy for read cycles: 8655262
4banks busy for write cycles: 154392
5banks busy for read cycles: 4046126
5banks busy for write cycles: 126342
6banks busy for read cycles: 1706807
6banks busy for write cycles: 117008
7banks busy for read cycles: 947482
7banks busy for write cycles: 140042
8banks busy for read cycles: 791769
8banks busy for write cycles: 228532

CPU 0 Branch Prediction Accuracy: 96.3142% MPKI: 11.2642 Average ROB Occupancy at Mispredict: 47.3631
Branch types
NOT_BRANCH: 17359361 69.4374%
BRANCH_DIRECT_JUMP: 954613 3.81845%
BRANCH_INDIRECT: 0 0%
BRANCH_CONDITIONAL: 6513665 26.0547%
BRANCH_DIRECT_CALL: 79755 0.31902%
BRANCH_INDIRECT_CALL: 6250 0.025%
BRANCH_RETURN: 86007 0.344028%
BRANCH_OTHER: 0 0%

DRAM PAGES: 1048576
Allocated PAGES: 44120
