
*** ChampSim Multicore Out-of-Order Simulator ***

Warmup Instructions: 25000000
Simulation Instructions: 25000000
Number of CPUs: 1
LLC sets: 2048
LLC ways: 16
Off-chip DRAM Size: 4096 MB Channels: 1 Width: 64-bit Data Rate: 6400 MT/s
CPU 0 runs given/traces/trace2.champsimtrace.xz
.xz
CPU 0 Bimodal branch predictor
BTB has LRU replacement policy
ITLB has LRU replacement policy
DTLB has LRU replacement policy
STLB has LRU replacement policy
L1I has LRU replacement policy
CPU 0 L1D Optimized prefetcher
L1D has LRU replacement policy
L2C has LRU replacement policy
LLC has LRU replacement policy
Heartbeat CPU 0 instructions: 10000002 cycles: 3798770 heartbeat IPC: 2.63243 cumulative IPC: 2.63243 (Simulation time: 0 hr 0 min 31 sec) 
Heartbeat CPU 0 instructions: 20000001 cycles: 7599889 heartbeat IPC: 2.6308 cumulative IPC: 2.63162 (Simulation time: 0 hr 1 min 1 sec) 

Warmup complete CPU 0 instructions: 25000001 cycles: 9499594 (Simulation time: 0 hr 1 min 16 sec) 

IP stride coverage after phase end: 0.775138 weight: 0.5999
CPLX coverage after phase end: 0.816932 weight: 0.618552
NL stride coverage after phase end: 0.84621 weight: 0.614285
Best prefetcher: 2
Heartbeat CPU 0 instructions: 30000001 cycles: 23227508 heartbeat IPC: 0.639893 cumulative IPC: 0.364221 (Simulation time: 0 hr 1 min 44 sec) 
Heartbeat CPU 0 instructions: 40000002 cycles: 50285721 heartbeat IPC: 0.369574 cumulative IPC: 0.367772 (Simulation time: 0 hr 2 min 39 sec) 
Coverage: 0.692708
Coverage: 0.501767
Coverage: 0.318318
Coverage: 0.209497
Coverage: 0.185792
Coverage: 0.186486
Coverage: 0.177719
Coverage: 0.187831
Coverage: 0.175066
Coverage: 0.150396
Coverage: 0.151194
Coverage: 0.135279
Coverage: 0.148148
Coverage: 0.131579
Coverage: 0.137566
Coverage: 0.132275
Coverage: 0.121053
Coverage: 0.129288
Coverage: 0.134921
Coverage: 0.120735
Coverage: 0.134565
Coverage: 0.16095
Coverage: 0.139474
Coverage: 0.145119
Coverage: 0.172414
Coverage: 0.167979
Coverage: 0.155263
Coverage: 0.161804
Coverage: 0.14248
Coverage: 0.152632
Coverage: 0.159574
Coverage: 0.174603
Coverage: 0.168421
Coverage: 0.163588
Coverage: 0.174603
Coverage: 0.142105
Coverage: 0.148148
Coverage: 0.174142
Coverage: 0.165354
Coverage: 0.186352
Coverage: 0.184697
Coverage: 0.175853
Coverage: 0.174603
Coverage: 0.190476
Coverage: 0.175853
Coverage: 0.178947
Coverage: 0.175066
Coverage: 0.172414
Coverage: 0.147757
Coverage: 0.158311
Coverage: 0.145889
Coverage: 0.154856
Coverage: 0.158311
Coverage: 0.164021
Coverage: 0.165354
Coverage: 0.173228
Coverage: 0.182058
Coverage: 0.181102
Coverage: 0.163158
Coverage: 0.154856
Coverage: 0.165354
Coverage: 0.180157
Coverage: 0.191099
Coverage: 0.178947
Coverage: 0.173228
Coverage: 0.174142
Coverage: 0.191601
Coverage: 0.17801
Coverage: 0.204724
Coverage: 0.212202
Coverage: 0.195251
Coverage: 0.205805
Coverage: 0.175066
Coverage: 0.157895
Coverage: 0.177249
Coverage: 0.177249
Coverage: 0.18254
Coverage: 0.160526
Coverage: 0.189474
Coverage: 0.206897
Coverage: 0.155263
Coverage: 0.18254
Coverage: 0.193122
Coverage: 0.191601
Coverage: 0.192105
Coverage: 0.160526
Coverage: 0.188482
Coverage: 0.171958
Coverage: 0.188329
Coverage: 0.186842
Coverage: 0.174603
Coverage: 0.173684
Coverage: 0.164921
Coverage: 0.170157
Coverage: 0.180157
Coverage: 0.192612
Coverage: 0.175853
Coverage: 0.179894
Coverage: 0.200528
Coverage: 0.188976
Coverage: 0.176781
Coverage: 0.166667
Coverage: 0.170604
Coverage: 0.173684
Coverage: 0.168865
Coverage: 0.154856
Coverage: 0.173684
Coverage: 0.180371
Coverage: 0.17942
Coverage: 0.181579
Coverage: 0.188329
Coverage: 0.213158
Coverage: 0.183727
Coverage: 0.188482
Coverage: 0.191601
Coverage: 0.170157
Coverage: 0.161376
Coverage: 0.151194
Coverage: 0.144737
Coverage: 0.168865
Coverage: 0.190476
Coverage: 0.173228
Coverage: 0.158311
Coverage: 0.166667
Coverage: 0.167109
Coverage: 0.12963
Coverage: 0.14248
Coverage: 0.166227
Coverage: 0.175853
Coverage: 0.186842
Coverage: 0.156085
Coverage: 0.136483
Coverage: 0.144357
Coverage: 0.160526
Coverage: 0.172775
Coverage: 0.175853
Coverage: 0.187831
Coverage: 0.186842
Coverage: 0.189974
Coverage: 0.17942
Coverage: 0.206349
Coverage: 0.139474
Coverage: 0.126984
Coverage: 0.145119
Coverage: 0.141732
Coverage: 0.153439
Coverage: 0.15873
Coverage: 0.173684
Coverage: 0.191601
Coverage: 0.215223
Coverage: 0.206806
Coverage: 0.19685
Coverage: 0.178947
Coverage: 0.186352
Coverage: 0.175853
Coverage: 0.169761
Coverage: 0.182058
Coverage: 0.165789
Coverage: 0.175393
Coverage: 0.200528
Coverage: 0.183727
Coverage: 0.168865
Coverage: 0.180851
Coverage: 0.176316
Coverage: 0.188976
Coverage: 0.182058
Coverage: 0.152231
Coverage: 0.154856
Coverage: 0.163588
Coverage: 0.192612
Coverage: 0.182058
Coverage: 0.188976
Coverage: 0.204724
Coverage: 0.198953
Coverage: 0.199475
Coverage: 0.188976
Coverage: 0.167979
Coverage: 0.194226
Coverage: 0.220472
Coverage: 0.219895
Coverage: 0.217277
Coverage: 0.201044
Coverage: 0.195822
Coverage: 0.193211
Coverage: 0.18799
Coverage: 0.207895
Coverage: 0.180628
Coverage: 0.193717
Coverage: 0.195822
Coverage: 0.180157
Coverage: 0.203655
Coverage: 0.180157
Coverage: 0.172775
Coverage: 0.180628
Coverage: 0.2021
Coverage: 0.2021
Coverage: 0.19685
Coverage: 0.177719
Coverage: 0.171958
Coverage: 0.178947
Coverage: 0.204724
Coverage: 0.211082
Coverage: 0.15748
Coverage: 0.171053
Coverage: 0.17942
Coverage: 0.170604
Coverage: 0.183727
Coverage: 0.184211
Coverage: 0.181102
Coverage: 0.198953
Coverage: 0.187335
Coverage: 0.176316
Coverage: 0.151832
Coverage: 0.163158
Coverage: 0.175853
Coverage: 0.157068
Coverage: 0.188976
Coverage: 0.183246
Coverage: 0.193211
Coverage: 0.201571
Coverage: 0.187335
Coverage: 0.164456
Coverage: 0.171053
Coverage: 0.156499
Coverage: 0.167553
Coverage: 0.168421
Coverage: 0.2
Coverage: 0.195767
Coverage: 0.173228
Coverage: 0.160105
Coverage: 0.147757
Coverage: 0.136842
Coverage: 0.142105
Coverage: 0.151194
Coverage: 0.167979
Coverage: 0.148148
Coverage: 0.156499
Coverage: 0.171958
Coverage: 0.178947
Coverage: 0.182058
Coverage: 0.181579
Coverage: 0.180628
Coverage: 0.169312
Coverage: 0.2021
Coverage: 0.188482
Coverage: 0.193717
Coverage: 0.183727
Coverage: 0.152231
Coverage: 0.170157
Coverage: 0.162304
Coverage: 0.19685
Coverage: 0.193717
Coverage: 0.180628
Coverage: 0.172324
Coverage: 0.159269
Coverage: 0.175853
Coverage: 0.175853
Coverage: 0.175393
Coverage: 0.162304
Coverage: 0.155263
Coverage: 0.170157
Coverage: 0.149215
Coverage: 0.157068
Coverage: 0.171958
Coverage: 0.155263
Coverage: 0.173228
Coverage: 0.184697
Coverage: 0.175853
Coverage: 0.180628
Coverage: 0.187335
Coverage: 0.194226
Coverage: 0.208443
Coverage: 0.186842
Coverage: 0.167539
Coverage: 0.155673
Coverage: 0.175066
Coverage: 0.190476
Coverage: 0.163588
Coverage: 0.173228
Coverage: 0.173228
Coverage: 0.15445
Coverage: 0.166227
Coverage: 0.191601
Coverage: 0.185864
Coverage: 0.197889
Coverage: 0.204724
Coverage: 0.183246
Coverage: 0.185185
Coverage: 0.174603
Coverage: 0.16273
Coverage: 0.184211
Coverage: 0.177719
Coverage: 0.187831
Coverage: 0.165789
Coverage: 0.184211
Coverage: 0.200528
Coverage: 0.167979
Coverage: 0.167979
Coverage: 0.181579
Coverage: 0.167979
Coverage: 0.155673
Coverage: 0.177249
Coverage: 0.16273
Coverage: 0.177249
Coverage: 0.188329
Coverage: 0.176781
Coverage: 0.197889
Coverage: 0.178478
Coverage: 0.15748
Coverage: 0.157068
Coverage: 0.182058
Coverage: 0.208443
Coverage: 0.181102
Coverage: 0.201058
Coverage: 0.220159
Coverage: 0.184697
Coverage: 0.198413
Coverage: 0.191489
Coverage: 0.160526
Coverage: 0.171504
Coverage: 0.188329
Coverage: 0.157895
Coverage: 0.171053
Coverage: 0.177719
Coverage: 0.192612
Coverage: 0.168865
Coverage: 0.155673
Coverage: 0.131926
Coverage: 0.141732
Coverage: 0.142105
Coverage: 0.135279
Coverage: 0.139474
Coverage: 0.144737
Coverage: 0.155263
Coverage: 0.159686
Coverage: 0.160526
Coverage: 0.137203
Coverage: 0.136483
Coverage: 0.171504
Coverage: 0.166227
Coverage: 0.148148
Coverage: 0.153034
Coverage: 0.142857
Coverage: 0.16095
Coverage: 0.149606
Coverage: 0.158311
Coverage: 0.150396
Coverage: 0.149606
Coverage: 0.15
Coverage: 0.142857
Coverage: 0.128947
Coverage: 0.134565
Coverage: 0.147757
Coverage: 0.152231
Coverage: 0.158311
Coverage: 0.169312
Coverage: 0.153034
Coverage: 0.133858
Coverage: 0.144737
Coverage: 0.177719
Coverage: 0.153034
Coverage: 0.147757
Coverage: 0.129973
Coverage: 0.125984
Coverage: 0.148148
Coverage: 0.155673
Coverage: 0.147368
Coverage: 0.163158
Coverage: 0.185676
Coverage: 0.189474
Coverage: 0.184697
Coverage: 0.17942
Coverage: 0.165789
Coverage: 0.142857
Coverage: 0.147757
Coverage: 0.161376
Coverage: 0.142105
Coverage: 0.157895
Coverage: 0.166227
Coverage: 0.141732
Coverage: 0.139474
Coverage: 0.153439
Coverage: 0.155263
Coverage: 0.161804
Coverage: 0.142857
Coverage: 0.136842
Coverage: 0.12963
Coverage: 0.140584
Coverage: 0.118734
Coverage: 0.148148
Coverage: 0.170213
Coverage: 0.148936
Coverage: 0.158311
Coverage: 0.163588
Coverage: 0.184211
Coverage: 0.170604
Coverage: 0.174142
Coverage: 0.171053
Coverage: 0.15445
Coverage: 0.178947
Coverage: 0.162304
Coverage: 0.169713
Coverage: 0.155263
Coverage: 0.155673
Coverage: 0.15748
Coverage: 0.171958
Coverage: 0.179894
Coverage: 0.168421
Coverage: 0.165354
Coverage: 0.191099
Coverage: 0.183727
Coverage: 0.170157
Coverage: 0.16273
Coverage: 0.168865
Coverage: 0.160526
Coverage: 0.165789
Coverage: 0.181102
Coverage: 0.177546
Coverage: 0.191099
Coverage: 0.183246
Coverage: 0.194737
Coverage: 0.188976
Coverage: 0.202632
Coverage: 0.185676
Coverage: 0.181579
Coverage: 0.163158
Coverage: 0.164456
Coverage: 0.142105
Coverage: 0.155673
Coverage: 0.135279
Coverage: 0.113158
Coverage: 0.113456
Coverage: 0.12963
Coverage: 0.171504
Coverage: 0.168865
Coverage: 0.171958
Coverage: 0.175066
Coverage: 0.176316
Coverage: 0.160105
Coverage: 0.168421
Coverage: 0.160105
Coverage: 0.176781
Coverage: 0.192612
Coverage: 0.2021
Coverage: 0.198413
Coverage: 0.172872
Coverage: 0.145119
Coverage: 0.132626
Coverage: 0.137931
Coverage: 0.155263
Coverage: 0.165789
Coverage: 0.163588
Coverage: 0.155673
Coverage: 0.142105
Coverage: 0.174142
Coverage: 0.18254
Coverage: 0.16273
Coverage: 0.168421
Coverage: 0.180628
Coverage: 0.167539
Coverage: 0.160105
Coverage: 0.172775
Coverage: 0.167539
Coverage: 0.174603
Coverage: 0.178947
Coverage: 0.186352
Coverage: 0.180628
Coverage: 0.190476
Coverage: 0.206349
Coverage: 0.167979
Coverage: 0.17801
Coverage: 0.189974
Coverage: 0.167979
Coverage: 0.181579
Coverage: 0.174603
Coverage: 0.15748
Coverage: 0.15873
Coverage: 0.178947
Coverage: 0.186352
Coverage: 0.209974
Coverage: 0.197368
Coverage: 0.173228
Coverage: 0.167539
Coverage: 0.169312
Coverage: 0.162234
Coverage: 0.152632
Coverage: 0.163158
Coverage: 0.182058
Coverage: 0.170604
Coverage: 0.196286
Coverage: 0.204787
Coverage: 0.184211
Coverage: 0.21164
Coverage: 0.209974
Coverage: 0.185864
Coverage: 0.152231
Coverage: 0.15748
Coverage: 0.192612
Coverage: 0.181102
Coverage: 0.191601
Coverage: 0.187335
Coverage: 0.157895
Coverage: 0.165354
Coverage: 0.191601
Coverage: 0.185864
Coverage: 0.170604
Coverage: 0.171053
Coverage: 0.191099
Coverage: 0.175853
Coverage: 0.177249
Coverage: 0.178947
Coverage: 0.183727
Coverage: 0.186842
Coverage: 0.2
Coverage: 0.17801
Coverage: 0.176316
Coverage: 0.183727
Coverage: 0.193717
Coverage: 0.189974
Coverage: 0.181579
Coverage: 0.194226
Coverage: 0.184697
Coverage: 0.180371
Coverage: 0.2021
Coverage: 0.189474
Coverage: 0.189474
Coverage: 0.211082
Coverage: 0.171053
Coverage: 0.178947
Coverage: 0.174603
Coverage: 0.168421
Coverage: 0.188329
Coverage: 0.177249
Coverage: 0.178478
Coverage: 0.2
Coverage: 0.189974
Coverage: 0.186352
Coverage: 0.185185
Coverage: 0.185185
Coverage: 0.19685
Coverage: 0.179894
Coverage: 0.187831
Coverage: 0.177719
Coverage: 0.153034
Coverage: 0.160105
Coverage: 0.174142
Coverage: 0.194226
Coverage: 0.213158
Coverage: 0.19685
Coverage: 0.185864
Coverage: 0.185864
Coverage: 0.196335
Coverage: 0.190601
Coverage: 0.183727
Coverage: 0.201571
Coverage: 0.2021
Coverage: 0.207349
Coverage: 0.206806
Coverage: 0.209424
Coverage: 0.211488
Coverage: 0.203655
Coverage: 0.197368
Coverage: 0.191099
Coverage: 0.198953
Coverage: 0.191099
Coverage: 0.191601
Coverage: 0.175393
Coverage: 0.176316
Coverage: 0.166227
Coverage: 0.160105
Coverage: 0.179894
Coverage: 0.163588
Coverage: 0.16273
Coverage: 0.181579
Coverage: 0.189974
Coverage: 0.160105
Coverage: 0.174603
Coverage: 0.194149
Coverage: 0.174142
Coverage: 0.164456
Coverage: 0.156085
Coverage: 0.195767
Coverage: 0.171053
Coverage: 0.169761
Coverage: 0.172872
Coverage: 0.158311
Coverage: 0.17942
Coverage: 0.191601
Coverage: 0.164921
Coverage: 0.160526
Coverage: 0.177249
Coverage: 0.171053
Coverage: 0.186842
Coverage: 0.203166
Coverage: 0.186352
Coverage: 0.173684
Coverage: 0.177249
Coverage: 0.176781
Coverage: 0.19685
Coverage: 0.177249
Coverage: 0.165789
Coverage: 0.15748
Coverage: 0.167539
Coverage: 0.191099
Coverage: 0.193211
Coverage: 0.168421
Coverage: 0.175066
Coverage: 0.165789
Coverage: 0.177719
Coverage: 0.168
Coverage: 0.157895
Coverage: 0.164921
Coverage: 0.207349
Coverage: 0.180628
Coverage: 0.18799
Coverage: 0.181579
Coverage: 0.191601
Coverage: 0.167539
Coverage: 0.152231
Coverage: 0.153439
Coverage: 0.15748
Coverage: 0.194226
Coverage: 0.163158
Coverage: 0.141361
Coverage: 0.166227
Coverage: 0.176316
Coverage: 0.193717
Coverage: 0.183246
Coverage: 0.175853
Coverage: 0.186842
Coverage: 0.183246
Coverage: 0.19685
Coverage: 0.206349
Coverage: 0.165789
Coverage: 0.173684
Coverage: 0.185185
Coverage: 0.176316
Coverage: 0.181102
Coverage: 0.189474
Coverage: 0.181102
Coverage: 0.196335
Coverage: 0.2
Coverage: 0.215223
Coverage: 0.212042
Coverage: 0.2021
Coverage: 0.180628
Coverage: 0.17801
Coverage: 0.186352
Coverage: 0.153439
Coverage: 0.141732
Coverage: 0.14248
Coverage: 0.15
Coverage: 0.160526
Coverage: 0.16095
Coverage: 0.181579
Coverage: 0.186842
Coverage: 0.188976
Coverage: 0.178947
Coverage: 0.153846
Coverage: 0.126316
Coverage: 0.142857
Coverage: 0.154255
Coverage: 0.147368
Coverage: 0.16273
Coverage: 0.181102
Coverage: 0.193717
Coverage: 0.178478
Coverage: 0.167539
Coverage: 0.203655
Coverage: 0.185379
Coverage: 0.177249
Coverage: 0.187335
Coverage: 0.170604
Coverage: 0.179894
Coverage: 0.177249
Coverage: 0.157895
Coverage: 0.182058
Coverage: 0.171504
Coverage: 0.146982
Coverage: 0.15
Coverage: 0.153034
Coverage: 0.149215
Coverage: 0.15748
Coverage: 0.168421
Coverage: 0.15
Coverage: 0.146982
Coverage: 0.176316
Coverage: 0.176316
Coverage: 0.167539
Coverage: 0.178478
Coverage: 0.186352
Coverage: 0.175393
Coverage: 0.186842
Coverage: 0.185185
Coverage: 0.178947
Coverage: 0.165789
Coverage: 0.17942
Coverage: 0.165354
Coverage: 0.17801
Coverage: 0.193122
Coverage: 0.166227
Coverage: 0.133858
Coverage: 0.132275
Coverage: 0.137931
Coverage: 0.15
Coverage: 0.174603
Coverage: 0.178191
Coverage: 0.16095
Coverage: 0.168865
Coverage: 0.177719
Coverage: 0.163158
Coverage: 0.163158
Coverage: 0.197368
Coverage: 0.198939
Coverage: 0.189974
Coverage: 0.164021
Coverage: 0.166667
Coverage: 0.186842
Coverage: 0.182058
Coverage: 0.170213
Coverage: 0.171504
Coverage: 0.212202
Coverage: 0.215426
Coverage: 0.200528
Coverage: 0.212202
Coverage: 0.202128
Coverage: 0.174142
Coverage: 0.178947
Coverage: 0.186352
Coverage: 0.164921
Coverage: 0.177546
Coverage: 0.196335
Coverage: 0.201044
Coverage: 0.195822
Coverage: 0.211488
Coverage: 0.21671
Coverage: 0.203655
Coverage: 0.216146
Coverage: 0.219321
Coverage: 0.201571
Coverage: 0.185379
Coverage: 0.185864
Coverage: 0.183246
Coverage: 0.17801
Coverage: 0.198433
Coverage: 0.190601
Coverage: 0.185379
Coverage: 0.184896
Coverage: 0.206266
Coverage: 0.201044
Coverage: 0.204188
Coverage: 0.180628
Coverage: 0.15445
Coverage: 0.172775
Coverage: 0.172775
Coverage: 0.172775
Coverage: 0.164491
Coverage: 0.18799
Coverage: 0.204188
Coverage: 0.180157
Coverage: 0.164021
Coverage: 0.148541
Coverage: 0.168421
Coverage: 0.170604
Coverage: 0.168865
Coverage: 0.157895
Coverage: 0.162304
Coverage: 0.155673
Coverage: 0.166227
Coverage: 0.144357
Coverage: 0.167979
Coverage: 0.184697
Coverage: 0.167979
Coverage: 0.196335
Coverage: 0.197889
Coverage: 0.199475
Coverage: 0.196335
Coverage: 0.190476
Coverage: 0.171504
Coverage: 0.145119
Coverage: 0.171958
Coverage: 0.183024
Coverage: 0.165789
Coverage: 0.173228
Coverage: 0.189974
Coverage: 0.167979
Coverage: 0.176781
Coverage: 0.181579
Coverage: 0.167539
Coverage: 0.193717
Coverage: 0.184697
Coverage: 0.167979
Coverage: 0.160526
Coverage: 0.173228
Coverage: 0.200528
Coverage: 0.191601
Coverage: 0.189474
Coverage: 0.206897
Coverage: 0.178947
Coverage: 0.164456
Coverage: 0.187335
Coverage: 0.188976
Coverage: 0.181102
Coverage: 0.198413
Coverage: 0.175853
Coverage: 0.17801
Coverage: 0.175393
Coverage: 0.182768
Coverage: 0.174935
Coverage: 0.160105
Coverage: 0.170604
Coverage: 0.159686
Coverage: 0.186352
Coverage: 0.180628
Coverage: 0.175393
Coverage: 0.185379
Coverage: 0.194226
Coverage: 0.167539
Coverage: 0.180628
Coverage: 0.2021
Coverage: 0.212598
Coverage: 0.188482
Coverage: 0.183727
Coverage: 0.168865
Coverage: 0.144357
Coverage: 0.157068
Coverage: 0.16188
Coverage: 0.177546
Coverage: 0.223097
Coverage: 0.215789
Coverage: 0.170604
Coverage: 0.160526
Coverage: 0.171504
Coverage: 0.155673
Coverage: 0.175853
Coverage: 0.168421
Coverage: 0.175853
Coverage: 0.157068
Coverage: 0.154856
Coverage: 0.159686
Coverage: 0.164921
Coverage: 0.201044
Coverage: 0.206266
Coverage: 0.172324
Coverage: 0.182768
Coverage: 0.172324
Coverage: 0.185864
Coverage: 0.183246
Coverage: 0.196335
Coverage: 0.208877
Coverage: 0.201044
Coverage: 0.195822
Coverage: 0.206266
Coverage: 0.183246
Coverage: 0.190601
Coverage: 0.188482
Coverage: 0.21466
Coverage: 0.21671
Coverage: 0.201044
Coverage: 0.178478
Coverage: 0.15445
Coverage: 0.188482
Coverage: 0.186352
Coverage: 0.172775
Coverage: 0.17801
Coverage: 0.17801
Coverage: 0.201571
Coverage: 0.196335
Coverage: 0.183246
Coverage: 0.180628
Coverage: 0.188482
Coverage: 0.201571
Coverage: 0.193717
Coverage: 0.164921
Coverage: 0.195251
Coverage: 0.186842
Coverage: 0.175393
Coverage: 0.186842
Coverage: 0.181579
Coverage: 0.184697
Coverage: 0.182058
Coverage: 0.176316
Coverage: 0.17801
Coverage: 0.133508
Coverage: 0.171504
Coverage: 0.171958
Coverage: 0.155263
Coverage: 0.156499
Coverage: 0.159151
Coverage: 0.144737
Coverage: 0.181102
Coverage: 0.181579
Coverage: 0.16273
Coverage: 0.15445
Coverage: 0.157895
Coverage: 0.131579
Coverage: 0.139108
Coverage: 0.166227
Coverage: 0.203166
Coverage: 0.15748
Coverage: 0.173228
Coverage: 0.163588
Coverage: 0.144357
Coverage: 0.14248
Coverage: 0.145119
Coverage: 0.154856
Coverage: 0.182058
Coverage: 0.182058
Coverage: 0.173228
Coverage: 0.162304
Coverage: 0.157895
Coverage: 0.139474
Coverage: 0.120735
Coverage: 0.152632
Coverage: 0.171958
Coverage: 0.167979
Coverage: 0.174935
Coverage: 0.180628
Coverage: 0.162304
Coverage: 0.15873
Coverage: 0.177249
Coverage: 0.160526
Coverage: 0.176781
Coverage: 0.170213
Coverage: 0.151194
Coverage: 0.163158
Coverage: 0.147368
Coverage: 0.173684
Coverage: 0.159686
Coverage: 0.168865
Coverage: 0.147757
Coverage: 0.146982
Coverage: 0.157068
Coverage: 0.166227
Coverage: 0.141732
Coverage: 0.164921
Coverage: 0.171504
Coverage: 0.181579
Coverage: 0.180628
Coverage: 0.165354
Coverage: 0.183727
Coverage: 0.143979
Coverage: 0.152632
Coverage: 0.149606
Coverage: 0.156658
Coverage: 0.165789
Coverage: 0.189974
Coverage: 0.170604
Coverage: 0.176316
Coverage: 0.183246
Coverage: 0.186352
Coverage: 0.186352
Coverage: 0.183727
Coverage: 0.190476
Coverage: 0.139474
Coverage: 0.150396
Coverage: 0.152231
Coverage: 0.141361
Coverage: 0.171053
Coverage: 0.165354
Coverage: 0.172775
Coverage: 0.184697
Coverage: 0.192105
Coverage: 0.193717
Coverage: 0.181579
Coverage: 0.2021
Coverage: 0.2
Coverage: 0.173228
Coverage: 0.164921
Coverage: 0.17942
Coverage: 0.157895
Coverage: 0.171053
Coverage: 0.182058
Coverage: 0.15748
Coverage: 0.160105
Coverage: 0.189474
Coverage: 0.185864
Coverage: 0.183246
Coverage: 0.175393
Coverage: 0.195822
Coverage: 0.204188
Coverage: 0.208877
Coverage: 0.194737
Coverage: 0.164921
Coverage: 0.180628
Coverage: 0.168865
Coverage: 0.165354
Coverage: 0.164456
Coverage: 0.169312
Coverage: 0.152231
Coverage: 0.150396
Coverage: 0.163588
Coverage: 0.166667
Coverage: 0.171053
Coverage: 0.16095
Coverage: 0.193122
Coverage: 0.154856
Coverage: 0.174142
Coverage: 0.167109
Coverage: 0.153034
Coverage: 0.187335
Coverage: 0.189974
Coverage: 0.194226
Coverage: 0.184697
Coverage: 0.184697
Coverage: 0.181102
Coverage: 0.187335
Coverage: 0.190981
Coverage: 0.208443
Coverage: 0.194737
Coverage: 0.191099
Coverage: 0.198953
Coverage: 0.18799
Coverage: 0.192105
Coverage: 0.204188
Coverage: 0.180628
Coverage: 0.200528
Coverage: 0.194737
Coverage: 0.186352
Coverage: 0.17942
Coverage: 0.186352
Coverage: 0.173684
Coverage: 0.189974
Coverage: 0.197889
Coverage: 0.216359
Coverage: 0.183727
Coverage: 0.18254
Coverage: 0.190476
Coverage: 0.147368
Coverage: 0.174142
Coverage: 0.176316
Coverage: 0.136483
Coverage: 0.183727
Coverage: 0.193634
Coverage: 0.178947
Coverage: 0.16095
Coverage: 0.161376
Coverage: 0.150794
Coverage: 0.153034
Coverage: 0.165354
Coverage: 0.183727
Coverage: 0.180628
Coverage: 0.184697
Coverage: 0.175853
Coverage: 0.170157
Coverage: 0.168421
Coverage: 0.18254
Coverage: 0.175532
Coverage: 0.176471
Coverage: 0.164021
Coverage: 0.155263
Coverage: 0.163588
Coverage: 0.15873
Coverage: 0.163158
Coverage: 0.179894
Coverage: 0.187831
Coverage: 0.170213
Coverage: 0.17942
Coverage: 0.177719
Coverage: 0.156085
Coverage: 0.133858
Coverage: 0.167979
Coverage: 0.166227
Coverage: 0.149606
Coverage: 0.152632
Coverage: 0.174142
Coverage: 0.194737
Coverage: 0.166227
Coverage: 0.166667
Coverage: 0.165354
Coverage: 0.191099
Coverage: 0.17942
Coverage: 0.207895
Coverage: 0.201571
Coverage: 0.186842
Coverage: 0.183727
Coverage: 0.151832
Coverage: 0.182058
Coverage: 0.177719
Coverage: 0.197368
Coverage: 0.2
Coverage: 0.189474
Coverage: 0.185864
Coverage: 0.190601
Coverage: 0.189474
Coverage: 0.139842
Coverage: 0.170604
Coverage: 0.157068
Coverage: 0.171958
Coverage: 0.144357
Coverage: 0.165354
Coverage: 0.183246
Coverage: 0.180157
Coverage: 0.185379
Coverage: 0.16188
Coverage: 0.167102
Coverage: 0.185864
Coverage: 0.178947
Coverage: 0.166227
Coverage: 0.170604
Coverage: 0.163588
Coverage: 0.150396
Coverage: 0.136483
Coverage: 0.144737
Coverage: 0.16095
Coverage: 0.178478
Coverage: 0.186842
Coverage: 0.202632
Coverage: 0.19685
Coverage: 0.186842
Coverage: 0.192612
Coverage: 0.184211
Coverage: 0.18254
Coverage: 0.195767
Coverage: 0.190476
Coverage: 0.165789
Coverage: 0.176781
Coverage: 0.198939
Coverage: 0.152632
Coverage: 0.163588
Coverage: 0.145119
Coverage: 0.136483
Coverage: 0.147757
Coverage: 0.163158
Coverage: 0.193717
Coverage: 0.184697
Coverage: 0.17942
Coverage: 0.178947
Coverage: 0.183727
Coverage: 0.193717
Coverage: 0.203655
Coverage: 0.177546
Coverage: 0.182768
Coverage: 0.163588
Coverage: 0.165354
Coverage: 0.173228
Coverage: 0.169761
Coverage: 0.136842
Coverage: 0.145119
Coverage: 0.150794
Coverage: 0.186842
Coverage: 0.207349
Coverage: 0.179894
Coverage: 0.182058
Coverage: 0.191601
Coverage: 0.184211
Coverage: 0.19685
Coverage: 0.201571
Coverage: 0.200528
Coverage: 0.191601
Coverage: 0.188482
Coverage: 0.171504
Coverage: 0.164021
Coverage: 0.163158
Coverage: 0.168865
Coverage: 0.18883
Coverage: 0.179894
Coverage: 0.16095
Coverage: 0.164021
Coverage: 0.145889
Coverage: 0.121053
Coverage: 0.112861
Coverage: 0.110236
Coverage: 0.125654
Coverage: 0.154856
Coverage: 0.17942
Coverage: 0.167979
Coverage: 0.178947
Coverage: 0.188976
Coverage: 0.162304
Coverage: 0.151832
Coverage: 0.172775
Coverage: 0.17942
Coverage: 0.141732
Coverage: 0.134921
Coverage: 0.163588
Coverage: 0.149606
Coverage: 0.150396
Coverage: 0.142857
Coverage: 0.15
Coverage: 0.142105
Coverage: 0.170157
Coverage: 0.169713
Coverage: 0.185864
Coverage: 0.212042
Coverage: 0.205263
Coverage: 0.160105
Coverage: 0.15873
Coverage: 0.171504
Coverage: 0.136483
Coverage: 0.155263
Coverage: 0.142105
Coverage: 0.128272
Coverage: 0.157895
Coverage: 0.171053
Coverage: 0.144357
Coverage: 0.186352
Coverage: 0.208443
Coverage: 0.2021
Coverage: 0.171958
Coverage: 0.16095
Coverage: 0.18254
Coverage: 0.171053
Coverage: 0.198413
Coverage: 0.188329
Coverage: 0.186842
Coverage: 0.186842
Coverage: 0.182058
Coverage: 0.152231
Coverage: 0.161376
Coverage: 0.144737
Coverage: 0.11811
Coverage: 0.12336
Coverage: 0.139474
Coverage: 0.152231
Coverage: 0.139108
Coverage: 0.148541
Coverage: 0.187335
Coverage: 0.165354
Coverage: 0.170157
Coverage: 0.186352
Coverage: 0.164921
Coverage: 0.175393
Coverage: 0.176781
Coverage: 0.191601
Coverage: 0.220472
Coverage: 0.222513
Coverage: 0.219895
Coverage: 0.201044
Coverage: 0.173228
Coverage: 0.168865
Coverage: 0.141732
Coverage: 0.163158
Coverage: 0.165789
Coverage: 0.175393
Coverage: 0.167539
Coverage: 0.191099
Coverage: 0.167539
Coverage: 0.204724
Coverage: 0.2021
Coverage: 0.188482
Coverage: 0.183246
Coverage: 0.180628
Coverage: 0.188976
Coverage: 0.188482
Coverage: 0.175853
Coverage: 0.180628
Coverage: 0.180157
Coverage: 0.175393
Coverage: 0.175853
Coverage: 0.162304
Coverage: 0.160526
Coverage: 0.158311
Coverage: 0.171504
Coverage: 0.173228
Coverage: 0.171053
Coverage: 0.185185
Coverage: 0.178947
Coverage: 0.194226
Coverage: 0.191601
Coverage: 0.183246
Coverage: 0.189474
Coverage: 0.174142
Coverage: 0.165354
Coverage: 0.185864
Coverage: 0.208877
Coverage: 0.206806
Coverage: 0.180157
Coverage: 0.177546
Coverage: 0.188976
Coverage: 0.172775
Coverage: 0.180628
Coverage: 0.171053
Coverage: 0.16273
Coverage: 0.159686
Coverage: 0.160526
Coverage: 0.149215
Coverage: 0.142105
Coverage: 0.173228
Coverage: 0.206806
Coverage: 0.180628
Coverage: 0.196335
Coverage: 0.209424
Coverage: 0.162304
Coverage: 0.178947
Coverage: 0.165354
Coverage: 0.159686
Coverage: 0.157895
Coverage: 0.147757
Coverage: 0.175853
Coverage: 0.181102
Coverage: 0.167979
Coverage: 0.172775
Coverage: 0.164921
Coverage: 0.18799
Coverage: 0.211082
Coverage: 0.186352
Coverage: 0.2021
Coverage: 0.19685
Coverage: 0.188482
Coverage: 0.176316
Coverage: 0.164456
Coverage: 0.184211
Coverage: 0.169312
Coverage: 0.174142
Coverage: 0.176781
Coverage: 0.152632
Coverage: 0.171053
Coverage: 0.182058
Coverage: 0.194226
Coverage: 0.186842
Coverage: 0.197368
Coverage: 0.185864
Coverage: 0.169312
Coverage: 0.150794
Coverage: 0.149606
Coverage: 0.160526
Coverage: 0.163158
Coverage: 0.128609
Coverage: 0.15
Coverage: 0.150396
Coverage: 0.154255
Coverage: 0.134211
Coverage: 0.144737
Coverage: 0.172414
Coverage: 0.171053
Coverage: 0.192612
Coverage: 0.187335
Coverage: 0.194226
Coverage: 0.186842
Coverage: 0.198939
Coverage: 0.155263
Coverage: 0.171504
Coverage: 0.171504
Coverage: 0.178947
Coverage: 0.164021
Coverage: 0.153034
Coverage: 0.168865
Coverage: 0.154856
Coverage: 0.155263
Coverage: 0.165789
Coverage: 0.15748
Coverage: 0.143979
Coverage: 0.157895
Coverage: 0.149606
Coverage: 0.176316
Coverage: 0.16273
Coverage: 0.157068
Coverage: 0.154856
Coverage: 0.155263
Coverage: 0.142105
Coverage: 0.152231
Coverage: 0.188976
Coverage: 0.204188
Coverage: 0.193211
Coverage: 0.186352
Coverage: 0.171053
Coverage: 0.154856
Coverage: 0.177249
Coverage: 0.192612
Coverage: 0.180628
Coverage: 0.184211
Coverage: 0.181102
Coverage: 0.175393
Coverage: 0.191601
Coverage: 0.175532
Coverage: 0.174603
Coverage: 0.184211
Coverage: 0.184697
Coverage: 0.161804
Coverage: 0.163158
Coverage: 0.167979
Coverage: 0.205263
Coverage: 0.194226
Coverage: 0.167979
Coverage: 0.154856
Coverage: 0.162304
Coverage: 0.168421
Coverage: 0.184211
Coverage: 0.173684
Coverage: 0.158311
Coverage: 0.168865
Coverage: 0.15873
Coverage: 0.173684
Coverage: 0.191601
Coverage: 0.197368
Coverage: 0.164921
Coverage: 0.169312
Coverage: 0.159151
Coverage: 0.136842
Coverage: 0.16273
Coverage: 0.168421
Coverage: 0.183727
Coverage: 0.183727
Coverage: 0.188976
Coverage: 0.189974
Coverage: 0.173684
Coverage: 0.192612
Coverage: 0.189974
Coverage: 0.160526
Coverage: 0.156085
Coverage: 0.155263
Coverage: 0.160105
Coverage: 0.191099
Coverage: 0.208877
Coverage: 0.212042
Coverage: 0.208877
Coverage: 0.203655
Coverage: 0.208877
Coverage: 0.200521
Coverage: 0.198433
Coverage: 0.198433
Coverage: 0.182768
Coverage: 0.183727
Coverage: 0.185864
Coverage: 0.174935
Coverage: 0.184211
Coverage: 0.175066
Coverage: 0.15
Coverage: 0.155673
Coverage: 0.155673
Coverage: 0.14248
Coverage: 0.133858
Coverage: 0.145503
Coverage: 0.147757
Coverage: 0.125984
Coverage: 0.152632
Coverage: 0.166227
Coverage: 0.139108
Coverage: 0.134565
Coverage: 0.148148
Coverage: 0.126316
Coverage: 0.134211
Coverage: 0.129288
Coverage: 0.123037
Coverage: 0.124011
Coverage: 0.131926
Coverage: 0.14248
Coverage: 0.136842
Coverage: 0.150396
Coverage: 0.150396
Coverage: 0.146982
Coverage: 0.15
Coverage: 0.137931
Coverage: 0.155673
Coverage: 0.158311
Coverage: 0.153034
Coverage: 0.167539
Coverage: 0.150794
Coverage: 0.153034
Coverage: 0.141732
Coverage: 0.137203
Coverage: 0.134921
Coverage: 0.134921
Coverage: 0.129288
Coverage: 0.142857
Coverage: 0.143617
Coverage: 0.142105
Coverage: 0.145119
Coverage: 0.164021
Coverage: 0.155263
Coverage: 0.16095
Coverage: 0.156499
Coverage: 0.155263
Coverage: 0.142105
Coverage: 0.127321
Coverage: 0.126316
Coverage: 0.131579
Coverage: 0.139842
Coverage: 0.160526
Coverage: 0.136842
Coverage: 0.163588
Coverage: 0.166227
Coverage: 0.15748
Coverage: 0.139842
Coverage: 0.135279
Coverage: 0.113158
Coverage: 0.157895
Coverage: 0.145503
Coverage: 0.123684
Coverage: 0.142857
Coverage: 0.156499
Coverage: 0.171053
Coverage: 0.156085
Coverage: 0.175066
Coverage: 0.175532
Coverage: 0.147757
Coverage: 0.151194
Coverage: 0.172414
Coverage: 0.163158
Coverage: 0.163588
Coverage: 0.167979
Coverage: 0.167539
Coverage: 0.175853
Coverage: 0.191099
Coverage: 0.191099
Coverage: 0.171958
Coverage: 0.153034
Coverage: 0.147368
Coverage: 0.166667
Coverage: 0.156499
Coverage: 0.154255
Coverage: 0.174142
Coverage: 0.169312
Coverage: 0.171504
Coverage: 0.191601
Coverage: 0.192105
Coverage: 0.182058
Coverage: 0.165354
Coverage: 0.194737
Coverage: 0.182058
Coverage: 0.154856
Coverage: 0.168421
Coverage: 0.16273
Coverage: 0.180628
Coverage: 0.178478
Coverage: 0.185185
Coverage: 0.183024
Coverage: 0.158311
Coverage: 0.155673
Heartbeat CPU 0 instructions: 50000000 cycles: 102656421 heartbeat IPC: 0.190946 cumulative IPC: 0.268365 (Simulation time: 0 hr 3 min 48 sec) 
Finished CPU 0 instructions: 25000000 cycles: 93156849 cumulative IPC: 0.268365 (Simulation time: 0 hr 3 min 48 sec) 

ChampSim completed all CPUs

Region of Interest Statistics

CPU 0 cumulative IPC: 0.268365 instructions: 25000000 cycles: 93156849
ITLB TOTAL     ACCESS:    4808751  HIT:    4808751  MISS:          0  HIT %:        100  MISS %:          0   MPKI: 0
ITLB LOAD TRANSLATION ACCESS:    4808751  HIT:    4808751  MISS:          0  HIT %:        100  MISS %:          0   MPKI: 0
ITLB PREFETCH  REQUESTED:          0  ISSUED:          0  USEFUL:          0  USELESS:          0
ITLB USEFUL LOAD PREFETCHES:          0 PREFETCH ISSUED TO LOWER LEVEL:          0  ACCURACY: -nan
ITLB TIMELY PREFETCHES:          0 LATE PREFETCHES: 0 DROPPED PREFETCHES: 0
ITLB PREFETCHES SAME FILL-ORIGIN LEVEL: 0 DIFFERENT FILL-ORIGIN LEVEL: 0
ITLB AVERAGE MISS LATENCY: -nan cycles
ITLB RQ	ACCESS:    4894164	FORWARD:          0	MERGED:      85413	TO_CACHE:    4808751

DTLB TOTAL     ACCESS:    3869327  HIT:    3835312  MISS:      34015  HIT %:    99.1209  MISS %:   0.879093   MPKI: 1.3606
DTLB LOAD TRANSLATION ACCESS:    3869327  HIT:    3835312  MISS:      34015  HIT %:    99.1209  MISS %:   0.879093   MPKI: 1.3606
DTLB PREFETCH  REQUESTED:          0  ISSUED:          0  USEFUL:          0  USELESS:          0
DTLB USEFUL LOAD PREFETCHES:          0 PREFETCH ISSUED TO LOWER LEVEL:          0  ACCURACY: -nan
DTLB TIMELY PREFETCHES:          0 LATE PREFETCHES: 0 DROPPED PREFETCHES: 0
DTLB PREFETCHES SAME FILL-ORIGIN LEVEL: 0 DIFFERENT FILL-ORIGIN LEVEL: 0
DTLB AVERAGE MISS LATENCY: 107.232 cycles
DTLB RQ	ACCESS:    4553957	FORWARD:          0	MERGED:     684504	TO_CACHE:    3869453

STLB TOTAL     ACCESS:    3162691  HIT:    3130030  MISS:      32661  HIT %:    98.9673  MISS %:     1.0327   MPKI: 1.30644
STLB LOAD TRANSLATION ACCESS:      34015  HIT:       1362  MISS:      32653  HIT %:    4.00412  MISS %:    95.9959   MPKI: 1.30612
STLB TRANSLATION FROM L1D PREFETCHER ACCESS:    3128676  HIT:    3128668  MISS:          8  HIT %:    99.9997  MISS %: 0.000255699   MPKI: 0.00032
STLB PREFETCH  REQUESTED:          0  ISSUED:          0  USEFUL:          8  USELESS:          0
STLB USEFUL LOAD PREFETCHES:          8 PREFETCH ISSUED TO LOWER LEVEL:          0  ACCURACY: inf
STLB TIMELY PREFETCHES:          8 LATE PREFETCHES: 0 DROPPED PREFETCHES: 0
STLB PREFETCHES SAME FILL-ORIGIN LEVEL: 0 DIFFERENT FILL-ORIGIN LEVEL: 0
STLB AVERAGE MISS LATENCY: 102.388 cycles
STLB RQ	ACCESS:   11066288	FORWARD:          0	MERGED:    7903597	TO_CACHE:    3162691

STLB Hit, L1D data hit: 0
STLB Hit, L2C data hit: 0
STLB Hit, LLC data hit: 0
STLB Hit, LLC data miss: 0
STLB STLB hints to L2: 0
L1D TOTAL     ACCESS:    9261480  HIT:    7455641  MISS:    1805839  HIT %:    80.5016  MISS %:    19.4984   MPKI: 72.2336
L1D LOAD      ACCESS:    4016812  HIT:    3353297  MISS:     663515  HIT %:    83.4816  MISS %:    16.5184   MPKI: 26.5406
L1D RFO       ACCESS:     333322  HIT:     333308  MISS:         14  HIT %:    99.9958  MISS %: 0.00420014   MPKI: 0.00056
L1D PREFETCH  ACCESS:    4911346  HIT:    3769036  MISS:    1142310  HIT %:    76.7414  MISS %:    23.2586   MPKI: 45.6924
AGUS PREFETCH L1 MISS: 0
L1D PREFETCH  REQUESTED:   25876126  ISSUED:   25855686  USEFUL:    1089725  USELESS:      52566
L1D USEFUL LOAD PREFETCHES:    1089725 PREFETCH ISSUED TO LOWER LEVEL:    1760744  ACCURACY: 61.89
L1D TIMELY PREFETCHES:    1089725 LATE PREFETCHES: 618431 DROPPED PREFETCHES: 0
L1D PREFETCHES SAME FILL-ORIGIN LEVEL: 1760744 DIFFERENT FILL-ORIGIN LEVEL: 0
L1D AVERAGE MISS LATENCY: 120.659 cycles
L1D RQ	ACCESS:    8972962	FORWARD:          0	MERGED:    4750774	TO_CACHE:    4220631
L1D WQ	ACCESS:     370377	FORWARD:       1557	MERGED:      37051	TO_CACHE:     333326
L1D PQ	ACCESS:   14823413	FORWARD:          0	MERGED:    3791140	TO_CACHE:   11032273

L1D UNIQUE REGIONS ACCESSED: 0
L1D REGIONS CONFLICTS: 0
L1D Cross Page Prefetch Requests: 0
L1D Same Page Prefetch Requests: 14823413
L1D ROI Sum of L1D PQ occupancy: 153128871
L1D PREFETCHES PUSHED FROM L2C: 0
L1I TOTAL     ACCESS:    4894163  HIT:    4894163  MISS:          0  HIT %:        100  MISS %:          0   MPKI: 0
L1I LOAD      ACCESS:    4894163  HIT:    4894163  MISS:          0  HIT %:        100  MISS %:          0   MPKI: 0
L1I PREFETCH  REQUESTED:          0  ISSUED:          0  USEFUL:          0  USELESS:          0
L1I USEFUL LOAD PREFETCHES:          0 PREFETCH ISSUED TO LOWER LEVEL:          0  ACCURACY: -nan
L1I TIMELY PREFETCHES:          0 LATE PREFETCHES: 0 DROPPED PREFETCHES: 0
L1I PREFETCHES SAME FILL-ORIGIN LEVEL: 0 DIFFERENT FILL-ORIGIN LEVEL: 0
L1I AVERAGE MISS LATENCY: -nan cycles
L1I RQ	ACCESS:    7301377	FORWARD:          0	MERGED:    2407213	TO_CACHE:    4894164

BTB TOTAL     ACCESS:    5953193  HIT:    5953095  MISS:         98  HIT %:    99.9984  MISS %: 0.00164618   MPKI: 0.00392
BTB BRANCH_DIRECT_JUMP	ACCESS:      85874  HIT:      85848  MISS:         26
BTB BRANCH_INDIRECT	ACCESS:          0  HIT:          0  MISS:          0
BTB BRANCH_CONDITIONAL	ACCESS:    5783213  HIT:    5783164  MISS:         49
BTB BRANCH_DIRECT_CALL	ACCESS:      42053  HIT:      42043  MISS:         10
BTB BRANCH_INDIRECT_CALL	ACCESS:          0  HIT:          0  MISS:          0
BTB BRANCH_RETURN	ACCESS:      42053  HIT:      42040  MISS:         13
BTB BRANCH_OTHER ACCESS:          0  HIT:          0  MISS:          0

L2C TOTAL     ACCESS:    1841929  HIT:      54617  MISS:    1787312  HIT %:    2.96521  MISS %:    97.0348   MPKI: 71.4925
L2C LOAD      ACCESS:      45084  HIT:       4143  MISS:      40941  HIT %:    9.18951  MISS %:    90.8105   MPKI: 1.63764
L2C DATA LOAD MPKI: 1.63764
L2C INSTRUCTION LOAD MPKI: 0
L2C RFO       ACCESS:         13  HIT:          0  MISS:         13  HIT %:          0  MISS %:        100   MPKI: 0.00052
L2C PREFETCH  ACCESS:    1760742  HIT:      21851  MISS:    1738891  HIT %:    1.24101  MISS %:     98.759   MPKI: 69.5556
AGUS PREFETCH L1 MISS: 0
L2C DATA PREFETCH MPKI: 69.5556
L2C INSTRUCTION PREFETCH MPKI: 0
L2C WRITEBACK ACCESS:       2807  HIT:       2785  MISS:         22  HIT %:    99.2162  MISS %:   0.783755   MPKI: 0.00088
L2C LOAD TRANSLATION ACCESS:      33270  HIT:      25837  MISS:       7433  HIT %:    77.6586  MISS %:    22.3414   MPKI: 0.29732
L2C TRANSLATION FROM L1D PREFETCHER ACCESS:         13  HIT:          1  MISS:         12  HIT %:    7.69231  MISS %:    92.3077   MPKI: 0.00048
L2C PREFETCH  REQUESTED:          0  ISSUED:          0  USEFUL:       1229  USELESS:    1729749
L2C USEFUL LOAD PREFETCHES:       1229 PREFETCH ISSUED TO LOWER LEVEL:    1738893  ACCURACY: 0.0706771
L2C TIMELY PREFETCHES:       1229 LATE PREFETCHES: 0 DROPPED PREFETCHES: 0
L2C PREFETCHES SAME FILL-ORIGIN LEVEL: 0 DIFFERENT FILL-ORIGIN LEVEL: 0
L2C AVERAGE MISS LATENCY: 107.398 cycles
L2C RQ	ACCESS:      78379	FORWARD:          0	MERGED:          0	TO_CACHE:      78379
L2C WQ	ACCESS:       2807	FORWARD:          0	MERGED:          0	TO_CACHE:       2807
L2C PQ	ACCESS:    1760744	FORWARD:          0	MERGED:          0	TO_CACHE:    1760744

L2C Instructions Evicting Data 0
L2C Translations Evicting Data 7417
L2C Data Evicting Data 1772441
L2C Instructions Evicting Instructions 0
L2C Translations Evicting Instructions 0
L2C Data Evicting Instructions 0
L2C Instructions Evicting Translations 0
L2C Translations Evicting Translations 28
L2C Data Evicting Translations 7404
L2C Dense regions hint from L2: 0
PSCL5 TOTAL     ACCESS:      32661  HIT:      32661  MISS:          0  HIT %:        100  MISS %:          0   MPKI: 0
PSCL5 LOAD TRANSLATION ACCESS:      32653  HIT:      32653  MISS:          0  HIT %:        100  MISS %:          0   MPKI: 0
PSCL5 TRANSLATION FROM L1D PREFETCHER ACCESS:          8  HIT:          8  MISS:          0  HIT %:        100  MISS %:          0   MPKI: 0
PSCL5 PREFETCH  REQUESTED:          0  ISSUED:          0  USEFUL:          0  USELESS:          0
PSCL5 USEFUL LOAD PREFETCHES:          0 PREFETCH ISSUED TO LOWER LEVEL:          0  ACCURACY: -nan
PSCL5 TIMELY PREFETCHES:          0 LATE PREFETCHES: 0 DROPPED PREFETCHES: 0
PSCL5 PREFETCHES SAME FILL-ORIGIN LEVEL: 0 DIFFERENT FILL-ORIGIN LEVEL: 0

PSCL4 TOTAL     ACCESS:      32661  HIT:      32661  MISS:          0  HIT %:        100  MISS %:          0   MPKI: 0
PSCL4 LOAD TRANSLATION ACCESS:      32653  HIT:      32653  MISS:          0  HIT %:        100  MISS %:          0   MPKI: 0
PSCL4 TRANSLATION FROM L1D PREFETCHER ACCESS:          8  HIT:          8  MISS:          0  HIT %:        100  MISS %:          0   MPKI: 0
PSCL4 PREFETCH  REQUESTED:          0  ISSUED:          0  USEFUL:          0  USELESS:          0
PSCL4 USEFUL LOAD PREFETCHES:          0 PREFETCH ISSUED TO LOWER LEVEL:          0  ACCURACY: -nan
PSCL4 TIMELY PREFETCHES:          0 LATE PREFETCHES: 0 DROPPED PREFETCHES: 0
PSCL4 PREFETCHES SAME FILL-ORIGIN LEVEL: 0 DIFFERENT FILL-ORIGIN LEVEL: 0

PSCL3 TOTAL     ACCESS:      32487  HIT:      32484  MISS:          3  HIT %:    99.9908  MISS %: 0.00923446   MPKI: 0.00012
PSCL3 LOAD TRANSLATION ACCESS:      32480  HIT:      32477  MISS:          3  HIT %:    99.9908  MISS %: 0.00923645   MPKI: 0.00012
PSCL3 TRANSLATION FROM L1D PREFETCHER ACCESS:          7  HIT:          7  MISS:          0  HIT %:        100  MISS %:          0   MPKI: 0
PSCL3 PREFETCH  REQUESTED:          0  ISSUED:          0  USEFUL:          0  USELESS:          0
PSCL3 USEFUL LOAD PREFETCHES:          0 PREFETCH ISSUED TO LOWER LEVEL:          0  ACCURACY: -nan
PSCL3 TIMELY PREFETCHES:          0 LATE PREFETCHES: 0 DROPPED PREFETCHES: 0
PSCL3 PREFETCHES SAME FILL-ORIGIN LEVEL: 0 DIFFERENT FILL-ORIGIN LEVEL: 0

PSCL2 TOTAL     ACCESS:      32661  HIT:      31944  MISS:        717  HIT %:    97.8047  MISS %:    2.19528   MPKI: 0.02868
PSCL2 LOAD TRANSLATION ACCESS:      32657  HIT:      31940  MISS:        717  HIT %:    97.8045  MISS %:    2.19555   MPKI: 0.02868
PSCL2 TRANSLATION FROM L1D PREFETCHER ACCESS:          4  HIT:          4  MISS:          0  HIT %:        100  MISS %:          0   MPKI: 0
PSCL2 PREFETCH  REQUESTED:          0  ISSUED:          0  USEFUL:          0  USELESS:          0
PSCL2 USEFUL LOAD PREFETCHES:          0 PREFETCH ISSUED TO LOWER LEVEL:          0  ACCURACY: -nan
PSCL2 TIMELY PREFETCHES:          0 LATE PREFETCHES: 0 DROPPED PREFETCHES: 0
PSCL2 PREFETCHES SAME FILL-ORIGIN LEVEL: 0 DIFFERENT FILL-ORIGIN LEVEL: 0

LLC TOTAL     ACCESS:    1790066  HIT:       4756  MISS:    1785310  HIT %:   0.265689  MISS %:    99.7343   MPKI: 71.4124
LLC LOAD      ACCESS:      40941  HIT:        381  MISS:      40560  HIT %:   0.930607  MISS %:    99.0694   MPKI: 1.6224
LLC RFO       ACCESS:         13  HIT:          0  MISS:         13  HIT %:          0  MISS %:        100   MPKI: 0.00052
LLC PREFETCH  ACCESS:    1738891  HIT:       1285  MISS:    1737606  HIT %:  0.0738977  MISS %:    99.9261   MPKI: 69.5042
AGUS PREFETCH L1 MISS: 0
LLC WRITEBACK ACCESS:       2776  HIT:       2768  MISS:          8  HIT %:    99.7118  MISS %:   0.288184   MPKI: 0.00032
LLC LOAD TRANSLATION ACCESS:       7433  HIT:        322  MISS:       7111  HIT %:    4.33203  MISS %:     95.668   MPKI: 0.28444
LLC TRANSLATION FROM L1D PREFETCHER ACCESS:         12  HIT:          0  MISS:         12  HIT %:          0  MISS %:        100   MPKI: 0.00048
LLC PREFETCH  REQUESTED:          0  ISSUED:          0  USEFUL:         34  USELESS:    1705942
LLC USEFUL LOAD PREFETCHES:         34 PREFETCH ISSUED TO LOWER LEVEL:    1737607  ACCURACY: 0.00195671
LLC TIMELY PREFETCHES:         34 LATE PREFETCHES: 0 DROPPED PREFETCHES: 0
LLC PREFETCHES SAME FILL-ORIGIN LEVEL: 0 DIFFERENT FILL-ORIGIN LEVEL: 0
LLC AVERAGE MISS LATENCY: 77.3859 cycles
LLC RQ	ACCESS:      48398	FORWARD:          0	MERGED:          0	TO_CACHE:      48398
LLC WQ	ACCESS:       2776	FORWARD:          0	MERGED:          0	TO_CACHE:       2776
LLC PQ	ACCESS:    1738893	FORWARD:          0	MERGED:          0	TO_CACHE:    1738893

LLC Dense regions hint to LLC: 0

RAW hits: 3999
Loads Generated: 8976961
Loads sent to L1D: 8972962
Stores Generated: 370377
Stores sent to L1D: 370377
Major fault: 0 Minor fault: 48857
Allocated PAGES: 48857
CPU 0 L1D optimized prefetcher final stats
Degree: 5

DRAM Statistics
 CHANNEL 0
 RQ ROW_BUFFER_HIT:    1666792  ROW_BUFFER_MISS:     118509
 DBUS_CONGESTED:        422
 WQ ROW_BUFFER_HIT:        908  ROW_BUFFER_MISS:       1863  FULL:          0

 AVG_CONGESTED_CYCLE: 4
 All warmup complete: 2
Channel 0 Bank busy for read cycles: 0
Channel 0 Bank busy for write cycles: 0
Channel 0
Rank 0
0banks busy for read cycles: 32241303
0banks busy for write cycles: 1349
1banks busy for read cycles: 29895037
1banks busy for write cycles: 444056
2banks busy for read cycles: 24497461
2banks busy for write cycles: 190170
3banks busy for read cycles: 3584116
3banks busy for write cycles: 63178
4banks busy for read cycles: 630928
4banks busy for write cycles: 34391
5banks busy for read cycles: 462037
5banks busy for write cycles: 12946
6banks busy for read cycles: 1006854
6banks busy for write cycles: 4868
7banks busy for read cycles: 74615
7banks busy for write cycles: 2397
8banks busy for read cycles: 9925
8banks busy for write cycles: 1219

CPU 0 Branch Prediction Accuracy: 99.1323% MPKI: 3.09396 Average ROB Occupancy at Mispredict: 111.775
Branch types
NOT_BRANCH: 16085561 64.3422%
BRANCH_DIRECT_JUMP: 85874 0.343496%
BRANCH_INDIRECT: 0 0%
BRANCH_CONDITIONAL: 8744101 34.9764%
BRANCH_DIRECT_CALL: 42053 0.168212%
BRANCH_INDIRECT_CALL: 0 0%
BRANCH_RETURN: 42053 0.168212%
BRANCH_OTHER: 0 0%

DRAM PAGES: 1048576
Allocated PAGES: 48857
