
*** ChampSim Multicore Out-of-Order Simulator ***

Warmup Instructions: 25000000
Simulation Instructions: 25000000
Number of CPUs: 1
LLC sets: 2048
LLC ways: 16
Off-chip DRAM Size: 4096 MB Channels: 1 Width: 64-bit Data Rate: 6400 MT/s
CPU 0 runs given/traces/trace3.champsimtrace.xz
.xz
CPU 0 Bimodal branch predictor
BTB has LRU replacement policy
ITLB has LRU replacement policy
DTLB has LRU replacement policy
CPU 0 STLB arbitrary stride prefetcher
STLB has LRU replacement policy
L1I has LRU replacement policy
CPU 0 L1D Optimized prefetcher
L1D has LRU replacement policy
L2C has LRU replacement policy
LLC has LRU replacement policy
Heartbeat CPU 0 instructions: 10000001 cycles: 3779737 heartbeat IPC: 2.64569 cumulative IPC: 2.64569 (Simulation time: 0 hr 0 min 35 sec) 
Heartbeat CPU 0 instructions: 20000000 cycles: 7531746 heartbeat IPC: 2.66524 cumulative IPC: 2.65543 (Simulation time: 0 hr 1 min 10 sec) 

Warmup complete CPU 0 instructions: 25000004 cycles: 9438350 (Simulation time: 0 hr 1 min 27 sec) 

IP stride coverage after phase end: 0.216697 weight: 0.206514
CPLX coverage after phase end: 0.254424 weight: 0.223063
NL stride coverage after phase end: 0.20187 weight: 0.152448
Best prefetcher: 1
Heartbeat CPU 0 instructions: 30000001 cycles: 38541521 heartbeat IPC: 0.322479 cumulative IPC: 0.171802 (Simulation time: 0 hr 2 min 2 sec) 
Heartbeat CPU 0 instructions: 40000002 cycles: 96851666 heartbeat IPC: 0.171497 cumulative IPC: 0.171599 (Simulation time: 0 hr 3 min 11 sec) 
Heartbeat CPU 0 instructions: 50000000 cycles: 158578902 heartbeat IPC: 0.162003 cumulative IPC: 0.167627 (Simulation time: 0 hr 4 min 21 sec) 
Finished CPU 0 instructions: 25000000 cycles: 149140554 cumulative IPC: 0.167627 (Simulation time: 0 hr 4 min 21 sec) 

ChampSim completed all CPUs

Region of Interest Statistics

CPU 0 cumulative IPC: 0.167627 instructions: 25000000 cycles: 149140554
ITLB TOTAL     ACCESS:    4045247  HIT:    4045247  MISS:          0  HIT %:        100  MISS %:          0   MPKI: 0
ITLB LOAD TRANSLATION ACCESS:    4045247  HIT:    4045247  MISS:          0  HIT %:        100  MISS %:          0   MPKI: 0
ITLB PREFETCH  REQUESTED:          0  ISSUED:          0  USEFUL:          0  USELESS:          0
ITLB USEFUL LOAD PREFETCHES:          0 PREFETCH ISSUED TO LOWER LEVEL:          0  ACCURACY: -nan
ITLB TIMELY PREFETCHES:          0 LATE PREFETCHES: 0 DROPPED PREFETCHES: 0
ITLB PREFETCHES SAME FILL-ORIGIN LEVEL: 0 DIFFERENT FILL-ORIGIN LEVEL: 0
ITLB AVERAGE MISS LATENCY: -nan cycles
ITLB RQ	ACCESS:    4096432	FORWARD:          0	MERGED:      51186	TO_CACHE:    4045246

DTLB TOTAL     ACCESS:    5232338  HIT:    3028280  MISS:    2204058  HIT %:    57.8762  MISS %:    42.1238   MPKI: 88.1623
DTLB LOAD TRANSLATION ACCESS:    5232338  HIT:    3028280  MISS:    2204058  HIT %:    57.8762  MISS %:    42.1238   MPKI: 88.1623
DTLB PREFETCH  REQUESTED:          0  ISSUED:          0  USEFUL:          0  USELESS:          0
DTLB USEFUL LOAD PREFETCHES:          0 PREFETCH ISSUED TO LOWER LEVEL:          0  ACCURACY: -nan
DTLB TIMELY PREFETCHES:          0 LATE PREFETCHES: 0 DROPPED PREFETCHES: 0
DTLB PREFETCHES SAME FILL-ORIGIN LEVEL: 0 DIFFERENT FILL-ORIGIN LEVEL: 0
DTLB AVERAGE MISS LATENCY: 11.1035 cycles
DTLB RQ	ACCESS:    5754925	FORWARD:          0	MERGED:     493788	TO_CACHE:    5261137

STLB TOTAL     ACCESS:    3433718  HIT:    3397820  MISS:      35898  HIT %:    98.9545  MISS %:    1.04546   MPKI: 1.43592
STLB LOAD TRANSLATION ACCESS:    2204058  HIT:    2171831  MISS:      32227  HIT %:    98.5378  MISS %:    1.46217   MPKI: 1.28908
STLB PREFETCH TRANSLATION ACCESS:     182670  HIT:     178999  MISS:       3671  HIT %:    97.9904  MISS %:    2.00963   MPKI: 0.14684
STLB TRANSLATION FROM L1D PREFETCHER ACCESS:    1046990  HIT:    1046990  MISS:          0  HIT %:        100  MISS %:          0   MPKI: 0
STLB PREFETCH  REQUESTED:     456810  ISSUED:     358050  USEFUL:        589  USELESS:       3111
STLB USEFUL LOAD PREFETCHES:        589 PREFETCH ISSUED TO LOWER LEVEL:     176425  ACCURACY: 0.333853
STLB TIMELY PREFETCHES:        589 LATE PREFETCHES: 19 DROPPED PREFETCHES: 172735
STLB PREFETCHES SAME FILL-ORIGIN LEVEL: 176425 DIFFERENT FILL-ORIGIN LEVEL: 0
STLB AVERAGE MISS LATENCY: 141.228 cycles
STLB RQ	ACCESS:    7358116	FORWARD:          0	MERGED:    4107068	TO_CACHE:    3251048
STLB PQ	ACCESS:     358050	FORWARD:          0	MERGED:       2386	TO_CACHE:     355664

STLB Hit, L1D data hit: 0
STLB Hit, L2C data hit: 0
STLB Hit, LLC data hit: 0
STLB Hit, LLC data miss: 0
STLB STLB hints to L2: 0
L1D TOTAL     ACCESS:    9053752  HIT:    4871774  MISS:    4181978  HIT %:    53.8094  MISS %:    46.1906   MPKI: 167.279
L1D LOAD      ACCESS:    5254534  HIT:    2338407  MISS:    2916127  HIT %:    44.5027  MISS %:    55.4973   MPKI: 116.645
L1D RFO       ACCESS:     423844  HIT:     415988  MISS:       7856  HIT %:    98.1465  MISS %:    1.85351   MPKI: 0.31424
L1D PREFETCH  ACCESS:    3375374  HIT:    2117379  MISS:    1257995  HIT %:    62.7302  MISS %:    37.2698   MPKI: 50.3198
AGUS PREFETCH L1 MISS: 0
L1D PREFETCH  REQUESTED:   11594232  ISSUED:   11579406  USEFUL:     963473  USELESS:     294462
L1D USEFUL LOAD PREFETCHES:     963473 PREFETCH ISSUED TO LOWER LEVEL:    1442288  ACCURACY: 66.8017
L1D TIMELY PREFETCHES:     963473 LATE PREFETCHES: 184291 DROPPED PREFETCHES: 0
L1D PREFETCHES SAME FILL-ORIGIN LEVEL: 1442288 DIFFERENT FILL-ORIGIN LEVEL: 0
L1D AVERAGE MISS LATENCY: 126.201 cycles
L1D RQ	ACCESS:    8951692	FORWARD:          0	MERGED:    3574929	TO_CACHE:    5311805
L1D WQ	ACCESS:     459661	FORWARD:      65188	MERGED:      16541	TO_CACHE:     443120
L1D PQ	ACCESS:    6425348	FORWARD:          0	MERGED:    1271060	TO_CACHE:    5154058

L1D UNIQUE REGIONS ACCESSED: 0
L1D REGIONS CONFLICTS: 0
L1D Cross Page Prefetch Requests: 0
L1D Same Page Prefetch Requests: 6425348
L1D ROI Sum of L1D PQ occupancy: 73558603
L1D PREFETCHES PUSHED FROM L2C: 0
L1I TOTAL     ACCESS:    4096433  HIT:    4096433  MISS:          0  HIT %:        100  MISS %:          0   MPKI: 0
L1I LOAD      ACCESS:    4096433  HIT:    4096433  MISS:          0  HIT %:        100  MISS %:          0   MPKI: 0
L1I PREFETCH  REQUESTED:          0  ISSUED:          0  USEFUL:          0  USELESS:          0
L1I USEFUL LOAD PREFETCHES:          0 PREFETCH ISSUED TO LOWER LEVEL:          0  ACCURACY: -nan
L1I TIMELY PREFETCHES:          0 LATE PREFETCHES: 0 DROPPED PREFETCHES: 0
L1I PREFETCHES SAME FILL-ORIGIN LEVEL: 0 DIFFERENT FILL-ORIGIN LEVEL: 0
L1I AVERAGE MISS LATENCY: -nan cycles
L1I RQ	ACCESS:    5498223	FORWARD:          0	MERGED:    1401791	TO_CACHE:    4096432

BTB TOTAL     ACCESS:    7381233  HIT:    7359090  MISS:      22143  HIT %:       99.7  MISS %:   0.299991   MPKI: 0.88572
BTB BRANCH_DIRECT_JUMP	ACCESS:     954613  HIT:     954578  MISS:         35
BTB BRANCH_INDIRECT	ACCESS:          0  HIT:          0  MISS:          0
BTB BRANCH_CONDITIONAL	ACCESS:    6254608  HIT:    6254529  MISS:         79
BTB BRANCH_DIRECT_CALL	ACCESS:      79755  HIT:      79739  MISS:         16
BTB BRANCH_INDIRECT_CALL	ACCESS:       6250  HIT:       6242  MISS:          8
BTB BRANCH_RETURN	ACCESS:      86007  HIT:      64002  MISS:      22005
BTB BRANCH_OTHER ACCESS:          0  HIT:          0  MISS:          0

L2C TOTAL     ACCESS:    4470825  HIT:     675552  MISS:    3795273  HIT %:    15.1102  MISS %:    84.8898   MPKI: 151.811
L2C LOAD      ACCESS:    2731831  HIT:     381013  MISS:    2350818  HIT %:    13.9472  MISS %:    86.0528   MPKI: 94.0327
L2C DATA LOAD MPKI: 94.0327
L2C INSTRUCTION LOAD MPKI: 0
L2C RFO       ACCESS:       7854  HIT:        603  MISS:       7251  HIT %:    7.67762  MISS %:    92.3224   MPKI: 0.29004
L2C PREFETCH  ACCESS:    1442288  HIT:      20173  MISS:    1422115  HIT %:    1.39868  MISS %:    98.6013   MPKI: 56.8846
AGUS PREFETCH L1 MISS: 0
L2C DATA PREFETCH MPKI: 56.8846
L2C INSTRUCTION PREFETCH MPKI: 0
L2C WRITEBACK ACCESS:      79909  HIT:      79909  MISS:          0  HIT %:        100  MISS %:          0   MPKI: 0
L2C LOAD TRANSLATION ACCESS:      32374  HIT:      23962  MISS:       8412  HIT %:    74.0162  MISS %:    25.9838   MPKI: 0.33648
L2C PREFETCH TRANSLATION ACCESS:     176569  HIT:     169892  MISS:       6677  HIT %:    96.2185  MISS %:    3.78152   MPKI: 0.26708
L2C PREFETCH  REQUESTED:          0  ISSUED:          0  USEFUL:      15216  USELESS:    1410619
L2C USEFUL LOAD PREFETCHES:      15216 PREFETCH ISSUED TO LOWER LEVEL:    1422115  ACCURACY: 1.06996
L2C TIMELY PREFETCHES:      15216 LATE PREFETCHES: 0 DROPPED PREFETCHES: 0
L2C PREFETCHES SAME FILL-ORIGIN LEVEL: 0 DIFFERENT FILL-ORIGIN LEVEL: 0
L2C AVERAGE MISS LATENCY: 122.528 cycles
L2C RQ	ACCESS:    2948633	FORWARD:          0	MERGED:          0	TO_CACHE:    2948628
L2C WQ	ACCESS:      79909	FORWARD:          5	MERGED:          0	TO_CACHE:      79909
L2C PQ	ACCESS:    1442288	FORWARD:          0	MERGED:          0	TO_CACHE:    1442288

L2C Instructions Evicting Data 0
L2C Translations Evicting Data 15035
L2C Data Evicting Data 3765134
L2C Instructions Evicting Instructions 0
L2C Translations Evicting Instructions 0
L2C Data Evicting Instructions 0
L2C Instructions Evicting Translations 0
L2C Translations Evicting Translations 54
L2C Data Evicting Translations 15050
L2C Dense regions hint from L2: 0
PSCL5 TOTAL     ACCESS:     208633  HIT:     208633  MISS:          0  HIT %:        100  MISS %:          0   MPKI: 0
PSCL5 LOAD TRANSLATION ACCESS:      32208  HIT:      32208  MISS:          0  HIT %:        100  MISS %:          0   MPKI: 0
PSCL5 PREFETCH TRANSLATION ACCESS:     176425  HIT:     176425  MISS:          0  HIT %:        100  MISS %:          0   MPKI: 0
PSCL5 PREFETCH  REQUESTED:          0  ISSUED:          0  USEFUL:          0  USELESS:          0
PSCL5 USEFUL LOAD PREFETCHES:          0 PREFETCH ISSUED TO LOWER LEVEL:          0  ACCURACY: -nan
PSCL5 TIMELY PREFETCHES:          0 LATE PREFETCHES: 0 DROPPED PREFETCHES: 0
PSCL5 PREFETCHES SAME FILL-ORIGIN LEVEL: 0 DIFFERENT FILL-ORIGIN LEVEL: 0

PSCL4 TOTAL     ACCESS:     208633  HIT:     208633  MISS:          0  HIT %:        100  MISS %:          0   MPKI: 0
PSCL4 LOAD TRANSLATION ACCESS:      32208  HIT:      32208  MISS:          0  HIT %:        100  MISS %:          0   MPKI: 0
PSCL4 PREFETCH TRANSLATION ACCESS:     176425  HIT:     176425  MISS:          0  HIT %:        100  MISS %:          0   MPKI: 0
PSCL4 PREFETCH  REQUESTED:          0  ISSUED:          0  USEFUL:          0  USELESS:          0
PSCL4 USEFUL LOAD PREFETCHES:          0 PREFETCH ISSUED TO LOWER LEVEL:          0  ACCURACY: -nan
PSCL4 TIMELY PREFETCHES:          0 LATE PREFETCHES: 0 DROPPED PREFETCHES: 0
PSCL4 PREFETCHES SAME FILL-ORIGIN LEVEL: 0 DIFFERENT FILL-ORIGIN LEVEL: 0

PSCL3 TOTAL     ACCESS:     208633  HIT:     208633  MISS:          0  HIT %:        100  MISS %:          0   MPKI: 0
PSCL3 LOAD TRANSLATION ACCESS:      32208  HIT:      32208  MISS:          0  HIT %:        100  MISS %:          0   MPKI: 0
PSCL3 PREFETCH TRANSLATION ACCESS:     176425  HIT:     176425  MISS:          0  HIT %:        100  MISS %:          0   MPKI: 0
PSCL3 PREFETCH  REQUESTED:          0  ISSUED:          0  USEFUL:          0  USELESS:          0
PSCL3 USEFUL LOAD PREFETCHES:          0 PREFETCH ISSUED TO LOWER LEVEL:          0  ACCURACY: -nan
PSCL3 TIMELY PREFETCHES:          0 LATE PREFETCHES: 0 DROPPED PREFETCHES: 0
PSCL3 PREFETCHES SAME FILL-ORIGIN LEVEL: 0 DIFFERENT FILL-ORIGIN LEVEL: 0

PSCL2 TOTAL     ACCESS:     206045  HIT:     205719  MISS:        326  HIT %:    99.8418  MISS %:   0.158218   MPKI: 0.01304
PSCL2 LOAD TRANSLATION ACCESS:      32232  HIT:      31906  MISS:        326  HIT %:    98.9886  MISS %:    1.01142   MPKI: 0.01304
PSCL2 PREFETCH TRANSLATION ACCESS:     173813  HIT:     173813  MISS:          0  HIT %:        100  MISS %:          0   MPKI: 0
PSCL2 PREFETCH  REQUESTED:          0  ISSUED:          0  USEFUL:          0  USELESS:          0
PSCL2 USEFUL LOAD PREFETCHES:          0 PREFETCH ISSUED TO LOWER LEVEL:          0  ACCURACY: -nan
PSCL2 TIMELY PREFETCHES:          0 LATE PREFETCHES: 0 DROPPED PREFETCHES: 0
PSCL2 PREFETCHES SAME FILL-ORIGIN LEVEL: 0 DIFFERENT FILL-ORIGIN LEVEL: 0

LLC TOTAL     ACCESS:    3871690  HIT:    1651506  MISS:    2220184  HIT %:    42.6559  MISS %:    57.3441   MPKI: 88.8074
LLC LOAD      ACCESS:    2350817  HIT:    1492221  MISS:     858596  HIT %:    63.4767  MISS %:    36.5233   MPKI: 34.3438
LLC RFO       ACCESS:       7251  HIT:       6093  MISS:       1158  HIT %:    84.0298  MISS %:    15.9702   MPKI: 0.04632
LLC PREFETCH  ACCESS:    1422115  HIT:      68629  MISS:    1353486  HIT %:    4.82584  MISS %:    95.1742   MPKI: 54.1394
AGUS PREFETCH L1 MISS: 0
LLC WRITEBACK ACCESS:      76418  HIT:      76323  MISS:         95  HIT %:    99.8757  MISS %:   0.124316   MPKI: 0.0038
LLC LOAD TRANSLATION ACCESS:       8412  HIT:       5513  MISS:       2899  HIT %:    65.5373  MISS %:    34.4627   MPKI: 0.11596
LLC PREFETCH TRANSLATION ACCESS:       6677  HIT:       2727  MISS:       3950  HIT %:    40.8417  MISS %:    59.1583   MPKI: 0.158
LLC PREFETCH  REQUESTED:          0  ISSUED:          0  USEFUL:      16073  USELESS:    1325193
LLC USEFUL LOAD PREFETCHES:      16073 PREFETCH ISSUED TO LOWER LEVEL:    1353486  ACCURACY: 1.18753
LLC TIMELY PREFETCHES:      16073 LATE PREFETCHES: 0 DROPPED PREFETCHES: 0
LLC PREFETCHES SAME FILL-ORIGIN LEVEL: 0 DIFFERENT FILL-ORIGIN LEVEL: 0
LLC AVERAGE MISS LATENCY: 157.553 cycles
LLC RQ	ACCESS:    2373158	FORWARD:          0	MERGED:          0	TO_CACHE:    2373157
LLC WQ	ACCESS:      76418	FORWARD:          1	MERGED:          0	TO_CACHE:      76418
LLC PQ	ACCESS:    1422115	FORWARD:          0	MERGED:          0	TO_CACHE:    1422115

LLC Dense regions hint to LLC: 0

RAW hits: 62635
Loads Generated: 9014327
Loads sent to L1D: 8951692
Stores Generated: 459660
Stores sent to L1D: 459661
Major fault: 0 Minor fault: 44120
Allocated PAGES: 44120
CPU 0 L1D optimized prefetcher final stats
Degree: 5
Total loads11801023
CPU 0 STLB arbitrary stride prefetcher final stats
Degree: 10

DRAM Statistics
 CHANNEL 0
 RQ ROW_BUFFER_HIT:     872243  ROW_BUFFER_MISS:    1347811
 DBUS_CONGESTED:        265
 WQ ROW_BUFFER_HIT:      10973  ROW_BUFFER_MISS:      29223  FULL:          0

 AVG_CONGESTED_CYCLE: 4
 All warmup complete: 2
Channel 0 Bank busy for read cycles: 0
Channel 0 Bank busy for write cycles: 0
Channel 0
Rank 0
0banks busy for read cycles: 47781220
0banks busy for write cycles: 14280
1banks busy for read cycles: 37130084
1banks busy for write cycles: 2760767
2banks busy for read cycles: 21521272
2banks busy for write cycles: 579907
3banks busy for read cycles: 14035734
3banks busy for write cycles: 227147
4banks busy for read cycles: 9992845
4banks busy for write cycles: 148324
5banks busy for read cycles: 6774444
5banks busy for write cycles: 116202
6banks busy for read cycles: 4176976
6banks busy for write cycles: 105277
7banks busy for read cycles: 2393387
7banks busy for write cycles: 143066
8banks busy for read cycles: 984994
8banks busy for write cycles: 254629

CPU 0 Branch Prediction Accuracy: 96.3142% MPKI: 11.2642 Average ROB Occupancy at Mispredict: 45.7466
Branch types
NOT_BRANCH: 17359361 69.4374%
BRANCH_DIRECT_JUMP: 954613 3.81845%
BRANCH_INDIRECT: 0 0%
BRANCH_CONDITIONAL: 6513665 26.0547%
BRANCH_DIRECT_CALL: 79755 0.31902%
BRANCH_INDIRECT_CALL: 6250 0.025%
BRANCH_RETURN: 86007 0.344028%
BRANCH_OTHER: 0 0%

DRAM PAGES: 1048576
Allocated PAGES: 44120
