
*** ChampSim Multicore Out-of-Order Simulator ***

Warmup Instructions: 25000000
Simulation Instructions: 25000000
Number of CPUs: 1
LLC sets: 2048
LLC ways: 16
Off-chip DRAM Size: 4096 MB Channels: 1 Width: 64-bit Data Rate: 6400 MT/s
CPU 0 runs given/traces/trace1.champsimtrace.xz
.xz
CPU 0 Bimodal branch predictor
BTB has LRU replacement policy
ITLB has LRU replacement policy
DTLB has LRU replacement policy
CPU 0 STLB arbitrary stride prefetcher
STLB has LRU replacement policy
L1I has LRU replacement policy
CPU 0 L1D Optimized prefetcher
L1D has LRU replacement policy
L2C has LRU replacement policy
LLC has LRU replacement policy
Heartbeat CPU 0 instructions: 10000003 cycles: 2825264 heartbeat IPC: 3.53949 cumulative IPC: 3.53949 (Simulation time: 0 hr 0 min 29 sec) 
Heartbeat CPU 0 instructions: 20000003 cycles: 5637514 heartbeat IPC: 3.55587 cumulative IPC: 3.54766 (Simulation time: 0 hr 0 min 59 sec) 

Warmup complete CPU 0 instructions: 25000004 cycles: 7049189 (Simulation time: 0 hr 1 min 13 sec) 

IP stride coverage after phase end: 0 weight: 0
CPLX coverage after phase end: 0.00152718 weight: 0.0106844
NL stride coverage after phase end: 0.0130215 weight: 0.00944566
Best prefetcher: 2
Heartbeat CPU 0 instructions: 30000002 cycles: 19543643 heartbeat IPC: 0.719107 cumulative IPC: 0.400177 (Simulation time: 0 hr 1 min 51 sec) 
Heartbeat CPU 0 instructions: 40000002 cycles: 46950310 heartbeat IPC: 0.364875 cumulative IPC: 0.375929 (Simulation time: 0 hr 3 min 10 sec) 
Heartbeat CPU 0 instructions: 50000000 cycles: 71685672 heartbeat IPC: 0.404279 cumulative IPC: 0.386778 (Simulation time: 0 hr 4 min 25 sec) 
Finished CPU 0 instructions: 25000000 cycles: 64636484 cumulative IPC: 0.386778 (Simulation time: 0 hr 4 min 25 sec) 

ChampSim completed all CPUs

Region of Interest Statistics

CPU 0 cumulative IPC: 0.386778 instructions: 25000000 cycles: 64636484
ITLB TOTAL     ACCESS:    4481254  HIT:    4481254  MISS:          0  HIT %:        100  MISS %:          0   MPKI: 0
ITLB LOAD TRANSLATION ACCESS:    4481254  HIT:    4481254  MISS:          0  HIT %:        100  MISS %:          0   MPKI: 0
ITLB PREFETCH  REQUESTED:          0  ISSUED:          0  USEFUL:          0  USELESS:          0
ITLB USEFUL LOAD PREFETCHES:          0 PREFETCH ISSUED TO LOWER LEVEL:          0  ACCURACY: -nan
ITLB TIMELY PREFETCHES:          0 LATE PREFETCHES: 0 DROPPED PREFETCHES: 0
ITLB PREFETCHES SAME FILL-ORIGIN LEVEL: 0 DIFFERENT FILL-ORIGIN LEVEL: 0
ITLB AVERAGE MISS LATENCY: -nan cycles
ITLB RQ	ACCESS:    4821571	FORWARD:          0	MERGED:     340318	TO_CACHE:    4481253

DTLB TOTAL     ACCESS:    3792719  HIT:    3130027  MISS:     662692  HIT %:    82.5273  MISS %:    17.4727   MPKI: 26.5077
DTLB LOAD TRANSLATION ACCESS:    3792719  HIT:    3130027  MISS:     662692  HIT %:    82.5273  MISS %:    17.4727   MPKI: 26.5077
DTLB PREFETCH  REQUESTED:          0  ISSUED:          0  USEFUL:          0  USELESS:          0
DTLB USEFUL LOAD PREFETCHES:          0 PREFETCH ISSUED TO LOWER LEVEL:          0  ACCURACY: -nan
DTLB TIMELY PREFETCHES:          0 LATE PREFETCHES: 0 DROPPED PREFETCHES: 0
DTLB PREFETCHES SAME FILL-ORIGIN LEVEL: 0 DIFFERENT FILL-ORIGIN LEVEL: 0
DTLB AVERAGE MISS LATENCY: 83.6522 cycles
DTLB RQ	ACCESS:    4385841	FORWARD:          0	MERGED:     588943	TO_CACHE:    3796898

STLB TOTAL     ACCESS:    3721409  HIT:    3004649  MISS:     716760  HIT %:    80.7396  MISS %:    19.2604   MPKI: 28.6704
STLB LOAD TRANSLATION ACCESS:     662692  HIT:     103818  MISS:     558874  HIT %:    15.6661  MISS %:    84.3339   MPKI: 22.355
STLB PREFETCH TRANSLATION ACCESS:     535664  HIT:     377982  MISS:     157682  HIT %:    70.5633  MISS %:    29.4367   MPKI: 6.30728
STLB TRANSLATION FROM L1D PREFETCHER ACCESS:    2523053  HIT:    2522849  MISS:        204  HIT %:    99.9919  MISS %: 0.00808544   MPKI: 0.00816
STLB PREFETCH  REQUESTED:     744970  ISSUED:     588265  USEFUL:       4193  USELESS:     154472
STLB USEFUL LOAD PREFETCHES:       4193 PREFETCH ISSUED TO LOWER LEVEL:     195652  ACCURACY: 2.14309
STLB TIMELY PREFETCHES:       4193 LATE PREFETCHES: 1603 DROPPED PREFETCHES: 36370
STLB PREFETCHES SAME FILL-ORIGIN LEVEL: 195652 DIFFERENT FILL-ORIGIN LEVEL: 0
STLB AVERAGE MISS LATENCY: 169.045 cycles
STLB RQ	ACCESS:   12563342	FORWARD:          0	MERGED:    9377594	TO_CACHE:    3185748
STLB PQ	ACCESS:     588265	FORWARD:          0	MERGED:       2332	TO_CACHE:     585933

STLB Hit, L1D data hit: 0
STLB Hit, L2C data hit: 0
STLB Hit, LLC data hit: 0
STLB Hit, LLC data miss: 0
STLB STLB hints to L2: 0
L1D TOTAL     ACCESS:   15794984  HIT:   10408872  MISS:    5386112  HIT %:    65.8999  MISS %:    34.1001   MPKI: 215.444
L1D LOAD      ACCESS:    3256229  HIT:    2031202  MISS:    1225027  HIT %:     62.379  MISS %:     37.621   MPKI: 49.0011
L1D RFO       ACCESS:    1108655  HIT:    1039296  MISS:      69359  HIT %:    93.7439  MISS %:    6.25614   MPKI: 2.77436
L1D PREFETCH  ACCESS:   11430100  HIT:    7338374  MISS:    4091726  HIT %:    64.2022  MISS %:    35.7978   MPKI: 163.669
AGUS PREFETCH L1 MISS: 0
L1D PREFETCH  REQUESTED:   27726050  ISSUED:   27645536  USEFUL:      19551  USELESS:    4071596
L1D USEFUL LOAD PREFETCHES:      19551 PREFETCH ISSUED TO LOWER LEVEL:    4095771  ACCURACY: 0.477346
L1D TIMELY PREFETCHES:      19551 LATE PREFETCHES: 4042 DROPPED PREFETCHES: 0
L1D PREFETCHES SAME FILL-ORIGIN LEVEL: 4095771 DIFFERENT FILL-ORIGIN LEVEL: 0
L1D AVERAGE MISS LATENCY: 68.9809 cycles
L1D RQ	ACCESS:    6152782	FORWARD:          0	MERGED:    2819814	TO_CACHE:    3277183
L1D WQ	ACCESS:    1108674	FORWARD:      55785	MERGED:         16	TO_CACHE:    1108658
L1D PQ	ACCESS:   15744888	FORWARD:          0	MERGED:    3844240	TO_CACHE:   11900648

L1D UNIQUE REGIONS ACCESSED: 0
L1D REGIONS CONFLICTS: 0
L1D Cross Page Prefetch Requests: 0
L1D Same Page Prefetch Requests: 15744888
L1D ROI Sum of L1D PQ occupancy: 166897338
L1D PREFETCHES PUSHED FROM L2C: 0
L1I TOTAL     ACCESS:    4821572  HIT:    4821572  MISS:          0  HIT %:        100  MISS %:          0   MPKI: 0
L1I LOAD      ACCESS:    4821572  HIT:    4821572  MISS:          0  HIT %:        100  MISS %:          0   MPKI: 0
L1I PREFETCH  REQUESTED:          0  ISSUED:          0  USEFUL:          0  USELESS:          0
L1I USEFUL LOAD PREFETCHES:          0 PREFETCH ISSUED TO LOWER LEVEL:          0  ACCURACY: -nan
L1I TIMELY PREFETCHES:          0 LATE PREFETCHES: 0 DROPPED PREFETCHES: 0
L1I PREFETCHES SAME FILL-ORIGIN LEVEL: 0 DIFFERENT FILL-ORIGIN LEVEL: 0
L1I AVERAGE MISS LATENCY: -nan cycles
L1I RQ	ACCESS:    7315082	FORWARD:          0	MERGED:    2493511	TO_CACHE:    4821571

BTB TOTAL     ACCESS:    3283960  HIT:    3283952  MISS:          8  HIT %:    99.9998  MISS %: 0.000243608   MPKI: 0.00032
BTB BRANCH_DIRECT_JUMP	ACCESS:     568310  HIT:     568308  MISS:          2
BTB BRANCH_INDIRECT	ACCESS:          0  HIT:          0  MISS:          0
BTB BRANCH_CONDITIONAL	ACCESS:    1606983  HIT:    1606979  MISS:          4
BTB BRANCH_DIRECT_CALL	ACCESS:     554334  HIT:     554333  MISS:          1
BTB BRANCH_INDIRECT_CALL	ACCESS:          0  HIT:          0  MISS:          0
BTB BRANCH_RETURN	ACCESS:     554333  HIT:     554332  MISS:          1
BTB BRANCH_OTHER ACCESS:          0  HIT:          0  MISS:          0

L2C TOTAL     ACCESS:    6796470  HIT:    2123692  MISS:    4672778  HIT %:     31.247  MISS %:     68.753   MPKI: 186.911
L2C LOAD      ACCESS:    1220985  HIT:     299279  MISS:     921706  HIT %:    24.5113  MISS %:    75.4887   MPKI: 36.8682
L2C DATA LOAD MPKI: 36.8682
L2C INSTRUCTION LOAD MPKI: 0
L2C RFO       ACCESS:      69359  HIT:       1020  MISS:      68339  HIT %:    1.47061  MISS %:    98.5294   MPKI: 2.73356
L2C PREFETCH  ACCESS:    4095768  HIT:    1000399  MISS:    3095369  HIT %:    24.4252  MISS %:    75.5748   MPKI: 123.815
AGUS PREFETCH L1 MISS: 0
L2C DATA PREFETCH MPKI: 123.815
L2C INSTRUCTION PREFETCH MPKI: 0
L2C WRITEBACK ACCESS:     554587  HIT:     554583  MISS:          4  HIT %:    99.9993  MISS %: 0.000721257   MPKI: 0.00016
L2C LOAD TRANSLATION ACCESS:     620355  HIT:     140799  MISS:     479556  HIT %:    22.6965  MISS %:    77.3035   MPKI: 19.1822
L2C PREFETCH TRANSLATION ACCESS:     235009  HIT:     127608  MISS:     107401  HIT %:    54.2992  MISS %:    45.7008   MPKI: 4.29604
L2C TRANSLATION FROM L1D PREFETCHER ACCESS:        407  HIT:          4  MISS:        403  HIT %:   0.982801  MISS %:    99.0172   MPKI: 0.01612
L2C PREFETCH  REQUESTED:          0  ISSUED:          0  USEFUL:      88654  USELESS:    3109292
L2C USEFUL LOAD PREFETCHES:      88654 PREFETCH ISSUED TO LOWER LEVEL:    3095372  ACCURACY: 2.86408
L2C TIMELY PREFETCHES:      88654 LATE PREFETCHES: 0 DROPPED PREFETCHES: 0
L2C PREFETCHES SAME FILL-ORIGIN LEVEL: 0 DIFFERENT FILL-ORIGIN LEVEL: 0
L2C AVERAGE MISS LATENCY: 66.267 cycles
L2C RQ	ACCESS:    2146117	FORWARD:          0	MERGED:          0	TO_CACHE:    2146117
L2C WQ	ACCESS:     554587	FORWARD:          0	MERGED:          0	TO_CACHE:     554587
L2C PQ	ACCESS:    4095771	FORWARD:          0	MERGED:          0	TO_CACHE:    4095771

L2C Instructions Evicting Data 0
L2C Translations Evicting Data 504131
L2C Data Evicting Data 3578861
L2C Instructions Evicting Instructions 0
L2C Translations Evicting Instructions 0
L2C Data Evicting Instructions 0
L2C Instructions Evicting Translations 0
L2C Translations Evicting Translations 83229
L2C Data Evicting Translations 506553
L2C Dense regions hint from L2: 0
PSCL5 TOTAL     ACCESS:     753135  HIT:     753135  MISS:          0  HIT %:        100  MISS %:          0   MPKI: 0
PSCL5 LOAD TRANSLATION ACCESS:     557276  HIT:     557276  MISS:          0  HIT %:        100  MISS %:          0   MPKI: 0
PSCL5 PREFETCH TRANSLATION ACCESS:     195655  HIT:     195655  MISS:          0  HIT %:        100  MISS %:          0   MPKI: 0
PSCL5 TRANSLATION FROM L1D PREFETCHER ACCESS:        204  HIT:        204  MISS:          0  HIT %:        100  MISS %:          0   MPKI: 0
PSCL5 PREFETCH  REQUESTED:          0  ISSUED:          0  USEFUL:          0  USELESS:          0
PSCL5 USEFUL LOAD PREFETCHES:          0 PREFETCH ISSUED TO LOWER LEVEL:          0  ACCURACY: -nan
PSCL5 TIMELY PREFETCHES:          0 LATE PREFETCHES: 0 DROPPED PREFETCHES: 0
PSCL5 PREFETCHES SAME FILL-ORIGIN LEVEL: 0 DIFFERENT FILL-ORIGIN LEVEL: 0

PSCL4 TOTAL     ACCESS:     753135  HIT:     753135  MISS:          0  HIT %:        100  MISS %:          0   MPKI: 0
PSCL4 LOAD TRANSLATION ACCESS:     557276  HIT:     557276  MISS:          0  HIT %:        100  MISS %:          0   MPKI: 0
PSCL4 PREFETCH TRANSLATION ACCESS:     195655  HIT:     195655  MISS:          0  HIT %:        100  MISS %:          0   MPKI: 0
PSCL4 TRANSLATION FROM L1D PREFETCHER ACCESS:        204  HIT:        204  MISS:          0  HIT %:        100  MISS %:          0   MPKI: 0
PSCL4 PREFETCH  REQUESTED:          0  ISSUED:          0  USEFUL:          0  USELESS:          0
PSCL4 USEFUL LOAD PREFETCHES:          0 PREFETCH ISSUED TO LOWER LEVEL:          0  ACCURACY: -nan
PSCL4 TIMELY PREFETCHES:          0 LATE PREFETCHES: 0 DROPPED PREFETCHES: 0
PSCL4 PREFETCHES SAME FILL-ORIGIN LEVEL: 0 DIFFERENT FILL-ORIGIN LEVEL: 0

PSCL3 TOTAL     ACCESS:     751150  HIT:     751150  MISS:          0  HIT %:        100  MISS %:          0   MPKI: 0
PSCL3 LOAD TRANSLATION ACCESS:     557276  HIT:     557276  MISS:          0  HIT %:        100  MISS %:          0   MPKI: 0
PSCL3 PREFETCH TRANSLATION ACCESS:     193670  HIT:     193670  MISS:          0  HIT %:        100  MISS %:          0   MPKI: 0
PSCL3 TRANSLATION FROM L1D PREFETCHER ACCESS:        204  HIT:        204  MISS:          0  HIT %:        100  MISS %:          0   MPKI: 0
PSCL3 PREFETCH  REQUESTED:          0  ISSUED:          0  USEFUL:          0  USELESS:          0
PSCL3 USEFUL LOAD PREFETCHES:          0 PREFETCH ISSUED TO LOWER LEVEL:          0  ACCURACY: -nan
PSCL3 TIMELY PREFETCHES:          0 LATE PREFETCHES: 0 DROPPED PREFETCHES: 0
PSCL3 PREFETCHES SAME FILL-ORIGIN LEVEL: 0 DIFFERENT FILL-ORIGIN LEVEL: 0

PSCL2 TOTAL     ACCESS:     722777  HIT:     645220  MISS:      77557  HIT %:    89.2696  MISS %:    10.7304   MPKI: 3.10228
PSCL2 LOAD TRANSLATION ACCESS:     571754  HIT:     494197  MISS:      77557  HIT %:    86.4353  MISS %:    13.5647   MPKI: 3.10228
PSCL2 PREFETCH TRANSLATION ACCESS:     151022  HIT:     151022  MISS:          0  HIT %:        100  MISS %:          0   MPKI: 0
PSCL2 TRANSLATION FROM L1D PREFETCHER ACCESS:          1  HIT:          1  MISS:          0  HIT %:        100  MISS %:          0   MPKI: 0
PSCL2 PREFETCH  REQUESTED:          0  ISSUED:          0  USEFUL:          0  USELESS:          0
PSCL2 USEFUL LOAD PREFETCHES:          0 PREFETCH ISSUED TO LOWER LEVEL:          0  ACCURACY: -nan
PSCL2 TIMELY PREFETCHES:          0 LATE PREFETCHES: 0 DROPPED PREFETCHES: 0
PSCL2 PREFETCHES SAME FILL-ORIGIN LEVEL: 0 DIFFERENT FILL-ORIGIN LEVEL: 0

LLC TOTAL     ACCESS:    5229651  HIT:    4441981  MISS:     787670  HIT %:    84.9384  MISS %:    15.0616   MPKI: 31.5068
LLC LOAD      ACCESS:     921706  HIT:     876499  MISS:      45207  HIT %:    95.0953  MISS %:    4.90471   MPKI: 1.80828
LLC RFO       ACCESS:      68339  HIT:      67320  MISS:       1019  HIT %:    98.5089  MISS %:     1.4911   MPKI: 0.04076
LLC PREFETCH  ACCESS:    3095369  HIT:    2383769  MISS:     711600  HIT %:    77.0108  MISS %:    22.9892   MPKI: 28.464
AGUS PREFETCH L1 MISS: 0
LLC WRITEBACK ACCESS:     556877  HIT:     556877  MISS:          0  HIT %:        100  MISS %:          0   MPKI: 0
LLC LOAD TRANSLATION ACCESS:     479556  HIT:     466981  MISS:      12575  HIT %:    97.3778  MISS %:    2.62222   MPKI: 0.503
LLC PREFETCH TRANSLATION ACCESS:     107401  HIT:      90136  MISS:      17265  HIT %:    83.9247  MISS %:    16.0753   MPKI: 0.6906
LLC TRANSLATION FROM L1D PREFETCHER ACCESS:        403  HIT:        399  MISS:          4  HIT %:    99.0074  MISS %:   0.992556   MPKI: 0.00016
LLC PREFETCH  REQUESTED:          0  ISSUED:          0  USEFUL:     605549  USELESS:     108841
LLC USEFUL LOAD PREFETCHES:     605549 PREFETCH ISSUED TO LOWER LEVEL:     711603  ACCURACY: 85.0965
LLC TIMELY PREFETCHES:     605549 LATE PREFETCHES: 0 DROPPED PREFETCHES: 0
LLC PREFETCHES SAME FILL-ORIGIN LEVEL: 0 DIFFERENT FILL-ORIGIN LEVEL: 0
LLC AVERAGE MISS LATENCY: 211.867 cycles
LLC RQ	ACCESS:    1577407	FORWARD:          0	MERGED:          0	TO_CACHE:    1577407
LLC WQ	ACCESS:     556877	FORWARD:          0	MERGED:          0	TO_CACHE:     556877
LLC PQ	ACCESS:    3095372	FORWARD:          0	MERGED:          0	TO_CACHE:    3095372

LLC Dense regions hint to LLC: 0

RAW hits: 497747
Loads Generated: 6650532
Loads sent to L1D: 6152782
Stores Generated: 1108672
Stores sent to L1D: 1108674
Major fault: 0 Minor fault: 23115
Allocated PAGES: 23115
CPU 0 L1D optimized prefetcher final stats
Degree: 5
Total loads7120465
CPU 0 STLB arbitrary stride prefetcher final stats
Degree: 10

DRAM Statistics
 CHANNEL 0
 RQ ROW_BUFFER_HIT:      10294  ROW_BUFFER_MISS:     777376
 DBUS_CONGESTED:         11
 WQ ROW_BUFFER_HIT:     162081  ROW_BUFFER_MISS:     405852  FULL:          0

 AVG_CONGESTED_CYCLE: 4
 All warmup complete: 2
Channel 0 Bank busy for read cycles: 0
Channel 0 Bank busy for write cycles: 0
Channel 0
Rank 0
0banks busy for read cycles: 152579
0banks busy for write cycles: 297
1banks busy for read cycles: 12270293
1banks busy for write cycles: 163145
2banks busy for read cycles: 14545923
2banks busy for write cycles: 171294
3banks busy for read cycles: 10447098
3banks busy for write cycles: 191626
4banks busy for read cycles: 4776315
4banks busy for write cycles: 187323
5banks busy for read cycles: 1381965
5banks busy for write cycles: 170375
6banks busy for read cycles: 1836988
6banks busy for write cycles: 179926
7banks busy for read cycles: 811168
7banks busy for write cycles: 948787
8banks busy for read cycles: 347257
8banks busy for write cycles: 16054126

CPU 0 Branch Prediction Accuracy: 99.9685% MPKI: 0.04912 Average ROB Occupancy at Mispredict: 155.168
Branch types
NOT_BRANCH: 21105622 84.4225%
BRANCH_DIRECT_JUMP: 568310 2.27324%
BRANCH_INDIRECT: 0 0%
BRANCH_CONDITIONAL: 2217333 8.86933%
BRANCH_DIRECT_CALL: 554334 2.21734%
BRANCH_INDIRECT_CALL: 0 0%
BRANCH_RETURN: 554333 2.21733%
BRANCH_OTHER: 0 0%

DRAM PAGES: 1048576
Allocated PAGES: 23115
