
*** ChampSim Multicore Out-of-Order Simulator ***

Warmup Instructions: 25000000
Simulation Instructions: 25000000
Number of CPUs: 1
LLC sets: 2048
LLC ways: 16
Off-chip DRAM Size: 4096 MB Channels: 1 Width: 64-bit Data Rate: 6400 MT/s
CPU 0 runs given/traces/trace1.champsimtrace.xz
.xz
CPU 0 Bimodal branch predictor
BTB has LRU replacement policy
ITLB has LRU replacement policy
DTLB has LRU replacement policy
STLB has LRU replacement policy
L1I has LRU replacement policy
CPU 0 L1D Optimized prefetcher
L1D has LRU replacement policy
L2C has LRU replacement policy
LLC has LRU replacement policy
Heartbeat CPU 0 instructions: 10000003 cycles: 2830061 heartbeat IPC: 3.53349 cumulative IPC: 3.53349 (Simulation time: 0 hr 0 min 28 sec) 
Heartbeat CPU 0 instructions: 20000003 cycles: 5650207 heartbeat IPC: 3.54592 cumulative IPC: 3.53969 (Simulation time: 0 hr 0 min 56 sec) 

Warmup complete CPU 0 instructions: 25000004 cycles: 7064357 (Simulation time: 0 hr 1 min 9 sec) 

IP stride coverage after phase end: 0 weight: 0
CPLX coverage after phase end: 0.00185529 weight: 0.0149351
NL stride coverage after phase end: 0.00923451 weight: 0.00669674
Best prefetcher: 2
Heartbeat CPU 0 instructions: 30000003 cycles: 19618676 heartbeat IPC: 0.715898 cumulative IPC: 0.398269 (Simulation time: 0 hr 1 min 44 sec) 
Heartbeat CPU 0 instructions: 40000002 cycles: 44700772 heartbeat IPC: 0.398691 cumulative IPC: 0.39855 (Simulation time: 0 hr 2 min 52 sec) 
Heartbeat CPU 0 instructions: 50000000 cycles: 68714832 heartbeat IPC: 0.416423 cumulative IPC: 0.405512 (Simulation time: 0 hr 3 min 59 sec) 
Finished CPU 0 instructions: 25000000 cycles: 61650476 cumulative IPC: 0.405512 (Simulation time: 0 hr 3 min 59 sec) 

ChampSim completed all CPUs

Region of Interest Statistics

CPU 0 cumulative IPC: 0.405512 instructions: 25000000 cycles: 61650476
ITLB TOTAL     ACCESS:    4449995  HIT:    4449995  MISS:          0  HIT %:        100  MISS %:          0   MPKI: 0
ITLB LOAD TRANSLATION ACCESS:    4449995  HIT:    4449995  MISS:          0  HIT %:        100  MISS %:          0   MPKI: 0
ITLB PREFETCH  REQUESTED:          0  ISSUED:          0  USEFUL:          0  USELESS:          0
ITLB USEFUL LOAD PREFETCHES:          0 PREFETCH ISSUED TO LOWER LEVEL:          0  ACCURACY: -nan
ITLB TIMELY PREFETCHES:          0 LATE PREFETCHES: 0 DROPPED PREFETCHES: 0
ITLB PREFETCHES SAME FILL-ORIGIN LEVEL: 0 DIFFERENT FILL-ORIGIN LEVEL: 0
ITLB AVERAGE MISS LATENCY: -nan cycles
ITLB RQ	ACCESS:    4776012	FORWARD:          0	MERGED:     326018	TO_CACHE:    4449994

DTLB TOTAL     ACCESS:    3768639  HIT:    3106038  MISS:     662601  HIT %:     82.418  MISS %:     17.582   MPKI: 26.504
DTLB LOAD TRANSLATION ACCESS:    3768639  HIT:    3106038  MISS:     662601  HIT %:     82.418  MISS %:     17.582   MPKI: 26.504
DTLB PREFETCH  REQUESTED:          0  ISSUED:          0  USEFUL:          0  USELESS:          0
DTLB USEFUL LOAD PREFETCHES:          0 PREFETCH ISSUED TO LOWER LEVEL:          0  ACCURACY: -nan
DTLB TIMELY PREFETCHES:          0 LATE PREFETCHES: 0 DROPPED PREFETCHES: 0
DTLB PREFETCHES SAME FILL-ORIGIN LEVEL: 0 DIFFERENT FILL-ORIGIN LEVEL: 0
DTLB AVERAGE MISS LATENCY: 70.5105 cycles
DTLB RQ	ACCESS:    4354349	FORWARD:          0	MERGED:     579001	TO_CACHE:    3775348

STLB TOTAL     ACCESS:    3126761  HIT:    2564593  MISS:     562168  HIT %:    82.0208  MISS %:    17.9792   MPKI: 22.4867
STLB LOAD TRANSLATION ACCESS:     662601  HIT:     100635  MISS:     561966  HIT %:    15.1879  MISS %:    84.8121   MPKI: 22.4786
STLB TRANSLATION FROM L1D PREFETCHER ACCESS:    2464160  HIT:    2463958  MISS:        202  HIT %:    99.9918  MISS %: 0.00819752   MPKI: 0.00808
STLB PREFETCH  REQUESTED:          0  ISSUED:          0  USEFUL:        198  USELESS:          4
STLB USEFUL LOAD PREFETCHES:        198 PREFETCH ISSUED TO LOWER LEVEL:          0  ACCURACY: inf
STLB TIMELY PREFETCHES:        198 LATE PREFETCHES: 0 DROPPED PREFETCHES: 0
STLB PREFETCHES SAME FILL-ORIGIN LEVEL: 0 DIFFERENT FILL-ORIGIN LEVEL: 0
STLB AVERAGE MISS LATENCY: 72.4206 cycles
STLB RQ	ACCESS:    3778444	FORWARD:          0	MERGED:     651678	TO_CACHE:    3126766

STLB Hit, L1D data hit: 0
STLB Hit, L2C data hit: 0
STLB Hit, LLC data hit: 0
STLB Hit, LLC data miss: 0
STLB STLB hints to L2: 0
L1D TOTAL     ACCESS:    7181019  HIT:    4958309  MISS:    2222710  HIT %:    69.0474  MISS %:    30.9526   MPKI: 88.9084
L1D LOAD      ACCESS:    3226413  HIT:    2019474  MISS:    1206939  HIT %:    62.5919  MISS %:    37.4081   MPKI: 48.2776
L1D RFO       ACCESS:    1108630  HIT:    1039270  MISS:      69360  HIT %:    93.7436  MISS %:    6.25637   MPKI: 2.7744
L1D PREFETCH  ACCESS:    2845976  HIT:    1899565  MISS:     946411  HIT %:    66.7456  MISS %:    33.2544   MPKI: 37.8564
AGUS PREFETCH L1 MISS: 0
L1D PREFETCH  REQUESTED:    6350871  ISSUED:    6350412  USEFUL:       4694  USELESS:     941400
L1D USEFUL LOAD PREFETCHES:       4694 PREFETCH ISSUED TO LOWER LEVEL:     947002  ACCURACY: 0.495669
L1D TIMELY PREFETCHES:       4694 LATE PREFETCHES: 588 DROPPED PREFETCHES: 0
L1D PREFETCHES SAME FILL-ORIGIN LEVEL: 947002 DIFFERENT FILL-ORIGIN LEVEL: 0
L1D AVERAGE MISS LATENCY: 92.2685 cycles
L1D RQ	ACCESS:    6147468	FORWARD:          0	MERGED:    2851172	TO_CACHE:    3245717
L1D WQ	ACCESS:    1108674	FORWARD:      50579	MERGED:         42	TO_CACHE:    1108632
L1D PQ	ACCESS:    3234573	FORWARD:          0	MERGED:     118734	TO_CACHE:    3115839

L1D UNIQUE REGIONS ACCESSED: 0
L1D REGIONS CONFLICTS: 0
L1D Cross Page Prefetch Requests: 0
L1D Same Page Prefetch Requests: 3234573
L1D ROI Sum of L1D PQ occupancy: 39691270
L1D PREFETCHES PUSHED FROM L2C: 0
L1I TOTAL     ACCESS:    4776012  HIT:    4776012  MISS:          0  HIT %:        100  MISS %:          0   MPKI: 0
L1I LOAD      ACCESS:    4776012  HIT:    4776012  MISS:          0  HIT %:        100  MISS %:          0   MPKI: 0
L1I PREFETCH  REQUESTED:          0  ISSUED:          0  USEFUL:          0  USELESS:          0
L1I USEFUL LOAD PREFETCHES:          0 PREFETCH ISSUED TO LOWER LEVEL:          0  ACCURACY: -nan
L1I TIMELY PREFETCHES:          0 LATE PREFETCHES: 0 DROPPED PREFETCHES: 0
L1I PREFETCHES SAME FILL-ORIGIN LEVEL: 0 DIFFERENT FILL-ORIGIN LEVEL: 0
L1I AVERAGE MISS LATENCY: -nan cycles
L1I RQ	ACCESS:    7212618	FORWARD:          0	MERGED:    2436606	TO_CACHE:    4776012

BTB TOTAL     ACCESS:    3283969  HIT:    3283961  MISS:          8  HIT %:    99.9998  MISS %: 0.000243608   MPKI: 0.00032
BTB BRANCH_DIRECT_JUMP	ACCESS:     568311  HIT:     568309  MISS:          2
BTB BRANCH_INDIRECT	ACCESS:          0  HIT:          0  MISS:          0
BTB BRANCH_CONDITIONAL	ACCESS:    1606988  HIT:    1606984  MISS:          4
BTB BRANCH_DIRECT_CALL	ACCESS:     554335  HIT:     554334  MISS:          1
BTB BRANCH_INDIRECT_CALL	ACCESS:          0  HIT:          0  MISS:          0
BTB BRANCH_RETURN	ACCESS:     554335  HIT:     554334  MISS:          1
BTB BRANCH_OTHER ACCESS:          0  HIT:          0  MISS:          0

L2C TOTAL     ACCESS:    3416388  HIT:    1527813  MISS:    1888575  HIT %:    44.7201  MISS %:    55.2799   MPKI: 75.543
L2C LOAD      ACCESS:    1206351  HIT:     481409  MISS:     724942  HIT %:    39.9062  MISS %:    60.0938   MPKI: 28.9977
L2C DATA LOAD MPKI: 28.9977
L2C INSTRUCTION LOAD MPKI: 0
L2C RFO       ACCESS:      69360  HIT:       9577  MISS:      59783  HIT %:    13.8077  MISS %:    86.1923   MPKI: 2.39132
L2C PREFETCH  ACCESS:     946999  HIT:     353064  MISS:     593935  HIT %:    37.2824  MISS %:    62.7176   MPKI: 23.7574
AGUS PREFETCH L1 MISS: 0
L2C DATA PREFETCH MPKI: 23.7574
L2C INSTRUCTION PREFETCH MPKI: 0
L2C WRITEBACK ACCESS:     554484  HIT:     554483  MISS:          1  HIT %:    99.9998  MISS %: 0.000180348   MPKI: 4e-05
L2C LOAD TRANSLATION ACCESS:     638790  HIT:     129270  MISS:     509520  HIT %:    20.2367  MISS %:    79.7633   MPKI: 20.3808
L2C TRANSLATION FROM L1D PREFETCHER ACCESS:        404  HIT:         10  MISS:        394  HIT %:    2.47525  MISS %:    97.5248   MPKI: 0.01576
L2C PREFETCH  REQUESTED:          0  ISSUED:          0  USEFUL:      66214  USELESS:     525829
L2C USEFUL LOAD PREFETCHES:      66214 PREFETCH ISSUED TO LOWER LEVEL:     593938  ACCURACY: 11.1483
L2C TIMELY PREFETCHES:      66214 LATE PREFETCHES: 0 DROPPED PREFETCHES: 0
L2C PREFETCHES SAME FILL-ORIGIN LEVEL: 0 DIFFERENT FILL-ORIGIN LEVEL: 0
L2C AVERAGE MISS LATENCY: 99.083 cycles
L2C RQ	ACCESS:    1914906	FORWARD:          0	MERGED:          0	TO_CACHE:    1914906
L2C WQ	ACCESS:     554484	FORWARD:          0	MERGED:          0	TO_CACHE:     554484
L2C PQ	ACCESS:     947002	FORWARD:          0	MERGED:          0	TO_CACHE:     947002

L2C Instructions Evicting Data 0
L2C Translations Evicting Data 373475
L2C Data Evicting Data 1004473
L2C Instructions Evicting Instructions 0
L2C Translations Evicting Instructions 0
L2C Data Evicting Instructions 0
L2C Instructions Evicting Translations 0
L2C Translations Evicting Translations 136439
L2C Data Evicting Translations 374187
L2C Dense regions hint from L2: 0
PSCL5 TOTAL     ACCESS:     562170  HIT:     562170  MISS:          0  HIT %:        100  MISS %:          0   MPKI: 0
PSCL5 LOAD TRANSLATION ACCESS:     561968  HIT:     561968  MISS:          0  HIT %:        100  MISS %:          0   MPKI: 0
PSCL5 TRANSLATION FROM L1D PREFETCHER ACCESS:        202  HIT:        202  MISS:          0  HIT %:        100  MISS %:          0   MPKI: 0
PSCL5 PREFETCH  REQUESTED:          0  ISSUED:          0  USEFUL:          0  USELESS:          0
PSCL5 USEFUL LOAD PREFETCHES:          0 PREFETCH ISSUED TO LOWER LEVEL:          0  ACCURACY: -nan
PSCL5 TIMELY PREFETCHES:          0 LATE PREFETCHES: 0 DROPPED PREFETCHES: 0
PSCL5 PREFETCHES SAME FILL-ORIGIN LEVEL: 0 DIFFERENT FILL-ORIGIN LEVEL: 0

PSCL4 TOTAL     ACCESS:     562170  HIT:     562170  MISS:          0  HIT %:        100  MISS %:          0   MPKI: 0
PSCL4 LOAD TRANSLATION ACCESS:     561968  HIT:     561968  MISS:          0  HIT %:        100  MISS %:          0   MPKI: 0
PSCL4 TRANSLATION FROM L1D PREFETCHER ACCESS:        202  HIT:        202  MISS:          0  HIT %:        100  MISS %:          0   MPKI: 0
PSCL4 PREFETCH  REQUESTED:          0  ISSUED:          0  USEFUL:          0  USELESS:          0
PSCL4 USEFUL LOAD PREFETCHES:          0 PREFETCH ISSUED TO LOWER LEVEL:          0  ACCURACY: -nan
PSCL4 TIMELY PREFETCHES:          0 LATE PREFETCHES: 0 DROPPED PREFETCHES: 0
PSCL4 PREFETCHES SAME FILL-ORIGIN LEVEL: 0 DIFFERENT FILL-ORIGIN LEVEL: 0

PSCL3 TOTAL     ACCESS:     562170  HIT:     562170  MISS:          0  HIT %:        100  MISS %:          0   MPKI: 0
PSCL3 LOAD TRANSLATION ACCESS:     561968  HIT:     561968  MISS:          0  HIT %:        100  MISS %:          0   MPKI: 0
PSCL3 TRANSLATION FROM L1D PREFETCHER ACCESS:        202  HIT:        202  MISS:          0  HIT %:        100  MISS %:          0   MPKI: 0
PSCL3 PREFETCH  REQUESTED:          0  ISSUED:          0  USEFUL:          0  USELESS:          0
PSCL3 USEFUL LOAD PREFETCHES:          0 PREFETCH ISSUED TO LOWER LEVEL:          0  ACCURACY: -nan
PSCL3 TIMELY PREFETCHES:          0 LATE PREFETCHES: 0 DROPPED PREFETCHES: 0
PSCL3 PREFETCHES SAME FILL-ORIGIN LEVEL: 0 DIFFERENT FILL-ORIGIN LEVEL: 0

PSCL2 TOTAL     ACCESS:     562169  HIT:     485144  MISS:      77025  HIT %:    86.2986  MISS %:    13.7014   MPKI: 3.081
PSCL2 LOAD TRANSLATION ACCESS:     562169  HIT:     485144  MISS:      77025  HIT %:    86.2986  MISS %:    13.7014   MPKI: 3.081
PSCL2 PREFETCH  REQUESTED:          0  ISSUED:          0  USEFUL:          0  USELESS:          0
PSCL2 USEFUL LOAD PREFETCHES:          0 PREFETCH ISSUED TO LOWER LEVEL:          0  ACCURACY: -nan
PSCL2 TIMELY PREFETCHES:          0 LATE PREFETCHES: 0 DROPPED PREFETCHES: 0
PSCL2 PREFETCHES SAME FILL-ORIGIN LEVEL: 0 DIFFERENT FILL-ORIGIN LEVEL: 0

LLC TOTAL     ACCESS:    2444795  HIT:    1783625  MISS:     661170  HIT %:     72.956  MISS %:     27.044   MPKI: 26.4468
LLC LOAD      ACCESS:     724942  HIT:     626871  MISS:      98071  HIT %:    86.4719  MISS %:    13.5281   MPKI: 3.92284
LLC RFO       ACCESS:      59783  HIT:      59783  MISS:          0  HIT %:        100  MISS %:          0   MPKI: 0
LLC PREFETCH  ACCESS:     593935  HIT:      33571  MISS:     560364  HIT %:     5.6523  MISS %:    94.3477   MPKI: 22.4146
AGUS PREFETCH L1 MISS: 0
LLC WRITEBACK ACCESS:     556221  HIT:     556221  MISS:          0  HIT %:        100  MISS %:          0   MPKI: 0
LLC LOAD TRANSLATION ACCESS:     509520  HIT:     506789  MISS:       2731  HIT %:     99.464  MISS %:   0.535995   MPKI: 0.10924
LLC TRANSLATION FROM L1D PREFETCHER ACCESS:        394  HIT:        390  MISS:          4  HIT %:    98.9848  MISS %:    1.01523   MPKI: 0.00016
LLC PREFETCH  REQUESTED:          0  ISSUED:          0  USEFUL:     483579  USELESS:      72233
LLC USEFUL LOAD PREFETCHES:     483579 PREFETCH ISSUED TO LOWER LEVEL:     560367  ACCURACY: 86.2968
LLC TIMELY PREFETCHES:     483579 LATE PREFETCHES: 0 DROPPED PREFETCHES: 0
LLC PREFETCHES SAME FILL-ORIGIN LEVEL: 0 DIFFERENT FILL-ORIGIN LEVEL: 0
LLC AVERAGE MISS LATENCY: 195.881 cycles
LLC RQ	ACCESS:    1294639	FORWARD:          0	MERGED:          0	TO_CACHE:    1294639
LLC WQ	ACCESS:     556221	FORWARD:          0	MERGED:          0	TO_CACHE:     556221
LLC PQ	ACCESS:     593938	FORWARD:          0	MERGED:          0	TO_CACHE:     593938

LLC Dense regions hint to LLC: 0

RAW hits: 503071
Loads Generated: 6650541
Loads sent to L1D: 6147468
Stores Generated: 1108674
Stores sent to L1D: 1108674
Major fault: 0 Minor fault: 23115
Allocated PAGES: 23115
CPU 0 L1D optimized prefetcher final stats
Degree: 5
Total loads7092324

DRAM Statistics
 CHANNEL 0
 RQ ROW_BUFFER_HIT:       1879  ROW_BUFFER_MISS:     659292
 DBUS_CONGESTED:          2
 WQ ROW_BUFFER_HIT:     157139  ROW_BUFFER_MISS:     400265  FULL:          0

 AVG_CONGESTED_CYCLE: 2
 All warmup complete: 2
Channel 0 Bank busy for read cycles: 0
Channel 0 Bank busy for write cycles: 0
Channel 0
Rank 0
0banks busy for read cycles: 600305
0banks busy for write cycles: 747
1banks busy for read cycles: 12550133
1banks busy for write cycles: 200762
2banks busy for read cycles: 14113551
2banks busy for write cycles: 194791
3banks busy for read cycles: 11068727
3banks busy for write cycles: 211802
4banks busy for read cycles: 4926503
4banks busy for write cycles: 204530
5banks busy for read cycles: 606732
5banks busy for write cycles: 173613
6banks busy for read cycles: 268731
6banks busy for write cycles: 165285
7banks busy for read cycles: 70604
7banks busy for write cycles: 796444
8banks busy for read cycles: 63995
8banks busy for write cycles: 15433222

CPU 0 Branch Prediction Accuracy: 99.9685% MPKI: 0.04912 Average ROB Occupancy at Mispredict: 159.523
Branch types
NOT_BRANCH: 21105674 84.4227%
BRANCH_DIRECT_JUMP: 568311 2.27324%
BRANCH_INDIRECT: 0 0%
BRANCH_CONDITIONAL: 2217340 8.86936%
BRANCH_DIRECT_CALL: 554335 2.21734%
BRANCH_INDIRECT_CALL: 0 0%
BRANCH_RETURN: 554335 2.21734%
BRANCH_OTHER: 0 0%

DRAM PAGES: 1048576
Allocated PAGES: 23115
