
*** ChampSim Multicore Out-of-Order Simulator ***

Warmup Instructions: 25000000
Simulation Instructions: 25000000
Number of CPUs: 1
LLC sets: 2048
LLC ways: 16
Off-chip DRAM Size: 4096 MB Channels: 1 Width: 64-bit Data Rate: 6400 MT/s
CPU 0 runs given/traces/trace1.champsimtrace.xz
.xz
CPU 0 Bimodal branch predictor
BTB has LRU replacement policy
ITLB has LRU replacement policy
DTLB has LRU replacement policy
STLB has LRU replacement policy
L1I has LRU replacement policy
CPU 0 L1D Optimized prefetcher
L1D has LRU replacement policy
L2C has LRU replacement policy
LLC has LRU replacement policy
Heartbeat CPU 0 instructions: 10000003 cycles: 2830061 heartbeat IPC: 3.53349 cumulative IPC: 3.53349 (Simulation time: 0 hr 0 min 44 sec) 
Heartbeat CPU 0 instructions: 20000003 cycles: 5650207 heartbeat IPC: 3.54592 cumulative IPC: 3.53969 (Simulation time: 0 hr 1 min 28 sec) 

Warmup complete CPU 0 instructions: 25000004 cycles: 7064357 (Simulation time: 0 hr 1 min 50 sec) 

Useful: 0 Total: 70
IP stride accuracy after phase end: 0
Useful: 0 Total: 92
CPLX accuracy after phase end: 0
Useful: 22 Total: 7475
NL stride accuracy after phase end: 0.294314
Most accurate prefetcher: 2
Heartbeat CPU 0 instructions: 30000002 cycles: 19542329 heartbeat IPC: 0.719832 cumulative IPC: 0.400706 (Simulation time: 0 hr 2 min 48 sec) 
Heartbeat CPU 0 instructions: 40000002 cycles: 46705755 heartbeat IPC: 0.368142 cumulative IPC: 0.378392 (Simulation time: 0 hr 4 min 46 sec) 
Retire attempted: 68778069 Failed due to ip: 11434 Failed due to non completion: 0 Retired instructions: 49591767
Heartbeat CPU 0 instructions: 50000000 cycles: 70997412 heartbeat IPC: 0.411664 cumulative IPC: 0.391034 (Simulation time: 0 hr 6 min 40 sec) 
Finished CPU 0 instructions: 25000000 cycles: 63933056 cumulative IPC: 0.391034 (Simulation time: 0 hr 6 min 40 sec) 

ChampSim completed all CPUs

Region of Interest Statistics

CPU 0 cumulative IPC: 0.391034 instructions: 25000000 cycles: 63933056
ITLB TOTAL     ACCESS:    4492397  HIT:    4492397  MISS:          0  HIT %:        100  MISS %:          0   MPKI: 0
ITLB LOAD TRANSLATION ACCESS:    4492397  HIT:    4492397  MISS:          0  HIT %:        100  MISS %:          0   MPKI: 0
ITLB PREFETCH  REQUESTED:          0  ISSUED:          0  USEFUL:          0  USELESS:          0
ITLB USEFUL LOAD PREFETCHES:          0 PREFETCH ISSUED TO LOWER LEVEL:          0  ACCURACY: -nan
ITLB TIMELY PREFETCHES:          0 LATE PREFETCHES: 0 DROPPED PREFETCHES: 0
ITLB PREFETCHES SAME FILL-ORIGIN LEVEL: 0 DIFFERENT FILL-ORIGIN LEVEL: 0
ITLB AVERAGE MISS LATENCY: -nan cycles
ITLB RQ	ACCESS:    4831364	FORWARD:          0	MERGED:     338968	TO_CACHE:    4492396

DTLB TOTAL     ACCESS:    3801991  HIT:    3139320  MISS:     662671  HIT %:    82.5704  MISS %:    17.4296   MPKI: 26.5068
DTLB LOAD TRANSLATION ACCESS:    3801991  HIT:    3139320  MISS:     662671  HIT %:    82.5704  MISS %:    17.4296   MPKI: 26.5068
DTLB PREFETCH  REQUESTED:          0  ISSUED:          0  USEFUL:          0  USELESS:          0
DTLB USEFUL LOAD PREFETCHES:          0 PREFETCH ISSUED TO LOWER LEVEL:          0  ACCURACY: -nan
DTLB TIMELY PREFETCHES:          0 LATE PREFETCHES: 0 DROPPED PREFETCHES: 0
DTLB PREFETCHES SAME FILL-ORIGIN LEVEL: 0 DIFFERENT FILL-ORIGIN LEVEL: 0
DTLB AVERAGE MISS LATENCY: 80.4573 cycles
DTLB RQ	ACCESS:    4395720	FORWARD:          0	MERGED:     589995	TO_CACHE:    3805725

STLB TOTAL     ACCESS:    3218797  HIT:    2656630  MISS:     562167  HIT %:    82.5349  MISS %:    17.4651   MPKI: 22.4867
STLB LOAD TRANSLATION ACCESS:     662671  HIT:     100706  MISS:     561965  HIT %:     15.197  MISS %:     84.803   MPKI: 22.4786
STLB TRANSLATION FROM L1D PREFETCHER ACCESS:    2556126  HIT:    2555924  MISS:        202  HIT %:    99.9921  MISS %: 0.00790258   MPKI: 0.00808
STLB PREFETCH  REQUESTED:          0  ISSUED:          0  USEFUL:        202  USELESS:          0
STLB USEFUL LOAD PREFETCHES:        202 PREFETCH ISSUED TO LOWER LEVEL:          0  ACCURACY: inf
STLB TIMELY PREFETCHES:        202 LATE PREFETCHES: 0 DROPPED PREFETCHES: 0
STLB PREFETCHES SAME FILL-ORIGIN LEVEL: 0 DIFFERENT FILL-ORIGIN LEVEL: 0
STLB AVERAGE MISS LATENCY: 84.1461 cycles
STLB RQ	ACCESS:   12708202	FORWARD:          0	MERGED:    9489401	TO_CACHE:    3218801

STLB Hit, L1D data hit: 0
STLB Hit, L2C data hit: 0
STLB Hit, LLC data hit: 0
STLB Hit, LLC data miss: 0
STLB STLB hints to L2: 0
L1D TOTAL     ACCESS:   15938185  HIT:   10543751  MISS:    5394434  HIT %:     66.154  MISS %:     33.846   MPKI: 215.777
L1D LOAD      ACCESS:    3265828  HIT:    2039689  MISS:    1226139  HIT %:    62.4555  MISS %:    37.5445   MPKI: 49.0456
L1D RFO       ACCESS:    1108670  HIT:    1039310  MISS:      69360  HIT %:    93.7439  MISS %:    6.25614   MPKI: 2.7744
L1D PREFETCH  ACCESS:   11563687  HIT:    7464752  MISS:    4098935  HIT %:    64.5534  MISS %:    35.4466   MPKI: 163.957
AGUS PREFETCH L1 MISS: 0
L1D PREFETCH  REQUESTED:   27945796  ISSUED:   27868573  USEFUL:      18860  USELESS:    4079496
L1D USEFUL LOAD PREFETCHES:      18860 PREFETCH ISSUED TO LOWER LEVEL:    4102669  ACCURACY: 0.459701
L1D TIMELY PREFETCHES:      18860 LATE PREFETCHES: 3731 DROPPED PREFETCHES: 0
L1D PREFETCHES SAME FILL-ORIGIN LEVEL: 4102669 DIFFERENT FILL-ORIGIN LEVEL: 0
L1D AVERAGE MISS LATENCY: 68.4936 cycles
L1D RQ	ACCESS:    6149655	FORWARD:          0	MERGED:    2809957	TO_CACHE:    3287048
L1D WQ	ACCESS:    1108674	FORWARD:      52650	MERGED:          2	TO_CACHE:    1108672
L1D PQ	ACCESS:   15823046	FORWARD:          0	MERGED:    3777519	TO_CACHE:   12045527

L1D UNIQUE REGIONS ACCESSED: 0
L1D REGIONS CONFLICTS: 0
L1D Cross Page Prefetch Requests: 0
L1D Same Page Prefetch Requests: 15823046
L1D ROI Sum of L1D PQ occupancy: 167668489
L1D PREFETCHES PUSHED FROM L2C: 0
L1I TOTAL     ACCESS:    4831364  HIT:    4831364  MISS:          0  HIT %:        100  MISS %:          0   MPKI: 0
L1I LOAD      ACCESS:    4831364  HIT:    4831364  MISS:          0  HIT %:        100  MISS %:          0   MPKI: 0
L1I PREFETCH  REQUESTED:          0  ISSUED:          0  USEFUL:          0  USELESS:          0
L1I USEFUL LOAD PREFETCHES:          0 PREFETCH ISSUED TO LOWER LEVEL:          0  ACCURACY: -nan
L1I TIMELY PREFETCHES:          0 LATE PREFETCHES: 0 DROPPED PREFETCHES: 0
L1I PREFETCHES SAME FILL-ORIGIN LEVEL: 0 DIFFERENT FILL-ORIGIN LEVEL: 0
L1I AVERAGE MISS LATENCY: -nan cycles
L1I RQ	ACCESS:    7353880	FORWARD:          0	MERGED:    2522516	TO_CACHE:    4831364

BTB TOTAL     ACCESS:    3283969  HIT:    3283961  MISS:          8  HIT %:    99.9998  MISS %: 0.000243608   MPKI: 0.00032
BTB BRANCH_DIRECT_JUMP	ACCESS:     568311  HIT:     568309  MISS:          2
BTB BRANCH_INDIRECT	ACCESS:          0  HIT:          0  MISS:          0
BTB BRANCH_CONDITIONAL	ACCESS:    1606988  HIT:    1606984  MISS:          4
BTB BRANCH_DIRECT_CALL	ACCESS:     554335  HIT:     554334  MISS:          1
BTB BRANCH_INDIRECT_CALL	ACCESS:          0  HIT:          0  MISS:          0
BTB BRANCH_RETURN	ACCESS:     554335  HIT:     554334  MISS:          1
BTB BRANCH_OTHER ACCESS:          0  HIT:          0  MISS:          0

L2C TOTAL     ACCESS:    6588216  HIT:    1940490  MISS:    4647726  HIT %:     29.454  MISS %:     70.546   MPKI: 185.909
L2C LOAD      ACCESS:    1222408  HIT:     300562  MISS:     921846  HIT %:    24.5877  MISS %:    75.4123   MPKI: 36.8738
L2C DATA LOAD MPKI: 36.8738
L2C INSTRUCTION LOAD MPKI: 0
L2C RFO       ACCESS:      69360  HIT:       1023  MISS:      68337  HIT %:    1.47491  MISS %:    98.5251   MPKI: 2.73348
L2C PREFETCH  ACCESS:    4102666  HIT:    1003315  MISS:    3099351  HIT %:    24.4552  MISS %:    75.5448   MPKI: 123.974
AGUS PREFETCH L1 MISS: 0
L2C DATA PREFETCH MPKI: 123.974
L2C INSTRUCTION PREFETCH MPKI: 0
L2C WRITEBACK ACCESS:     554589  HIT:     554584  MISS:          5  HIT %:    99.9991  MISS %: 0.000901569   MPKI: 0.0002
L2C LOAD TRANSLATION ACCESS:     638789  HIT:      81005  MISS:     557784  HIT %:     12.681  MISS %:     87.319   MPKI: 22.3114
L2C TRANSLATION FROM L1D PREFETCHER ACCESS:        404  HIT:          1  MISS:        403  HIT %:   0.247525  MISS %:    99.7525   MPKI: 0.01612
L2C PREFETCH  REQUESTED:          0  ISSUED:          0  USEFUL:       4024  USELESS:    3090336
L2C USEFUL LOAD PREFETCHES:       4024 PREFETCH ISSUED TO LOWER LEVEL:    3099354  ACCURACY: 0.129834
L2C TIMELY PREFETCHES:       4024 LATE PREFETCHES: 0 DROPPED PREFETCHES: 0
L2C PREFETCHES SAME FILL-ORIGIN LEVEL: 0 DIFFERENT FILL-ORIGIN LEVEL: 0
L2C AVERAGE MISS LATENCY: 65.2513 cycles
L2C RQ	ACCESS:    1930962	FORWARD:          0	MERGED:          0	TO_CACHE:    1930962
L2C WQ	ACCESS:     554589	FORWARD:          0	MERGED:          0	TO_CACHE:     554589
L2C PQ	ACCESS:    4102669	FORWARD:          0	MERGED:          0	TO_CACHE:    4102669

L2C Instructions Evicting Data 0
L2C Translations Evicting Data 482517
L2C Data Evicting Data 3605128
L2C Instructions Evicting Instructions 0
L2C Translations Evicting Instructions 0
L2C Data Evicting Instructions 0
L2C Instructions Evicting Translations 0
L2C Translations Evicting Translations 75670
L2C Data Evicting Translations 484406
L2C Dense regions hint from L2: 0
PSCL5 TOTAL     ACCESS:     562169  HIT:     562169  MISS:          0  HIT %:        100  MISS %:          0   MPKI: 0
PSCL5 LOAD TRANSLATION ACCESS:     561967  HIT:     561967  MISS:          0  HIT %:        100  MISS %:          0   MPKI: 0
PSCL5 TRANSLATION FROM L1D PREFETCHER ACCESS:        202  HIT:        202  MISS:          0  HIT %:        100  MISS %:          0   MPKI: 0
PSCL5 PREFETCH  REQUESTED:          0  ISSUED:          0  USEFUL:          0  USELESS:          0
PSCL5 USEFUL LOAD PREFETCHES:          0 PREFETCH ISSUED TO LOWER LEVEL:          0  ACCURACY: -nan
PSCL5 TIMELY PREFETCHES:          0 LATE PREFETCHES: 0 DROPPED PREFETCHES: 0
PSCL5 PREFETCHES SAME FILL-ORIGIN LEVEL: 0 DIFFERENT FILL-ORIGIN LEVEL: 0

PSCL4 TOTAL     ACCESS:     562169  HIT:     562169  MISS:          0  HIT %:        100  MISS %:          0   MPKI: 0
PSCL4 LOAD TRANSLATION ACCESS:     561967  HIT:     561967  MISS:          0  HIT %:        100  MISS %:          0   MPKI: 0
PSCL4 TRANSLATION FROM L1D PREFETCHER ACCESS:        202  HIT:        202  MISS:          0  HIT %:        100  MISS %:          0   MPKI: 0
PSCL4 PREFETCH  REQUESTED:          0  ISSUED:          0  USEFUL:          0  USELESS:          0
PSCL4 USEFUL LOAD PREFETCHES:          0 PREFETCH ISSUED TO LOWER LEVEL:          0  ACCURACY: -nan
PSCL4 TIMELY PREFETCHES:          0 LATE PREFETCHES: 0 DROPPED PREFETCHES: 0
PSCL4 PREFETCHES SAME FILL-ORIGIN LEVEL: 0 DIFFERENT FILL-ORIGIN LEVEL: 0

PSCL3 TOTAL     ACCESS:     562169  HIT:     562169  MISS:          0  HIT %:        100  MISS %:          0   MPKI: 0
PSCL3 LOAD TRANSLATION ACCESS:     561967  HIT:     561967  MISS:          0  HIT %:        100  MISS %:          0   MPKI: 0
PSCL3 TRANSLATION FROM L1D PREFETCHER ACCESS:        202  HIT:        202  MISS:          0  HIT %:        100  MISS %:          0   MPKI: 0
PSCL3 PREFETCH  REQUESTED:          0  ISSUED:          0  USEFUL:          0  USELESS:          0
PSCL3 USEFUL LOAD PREFETCHES:          0 PREFETCH ISSUED TO LOWER LEVEL:          0  ACCURACY: -nan
PSCL3 TIMELY PREFETCHES:          0 LATE PREFETCHES: 0 DROPPED PREFETCHES: 0
PSCL3 PREFETCHES SAME FILL-ORIGIN LEVEL: 0 DIFFERENT FILL-ORIGIN LEVEL: 0

PSCL2 TOTAL     ACCESS:     562168  HIT:     485143  MISS:      77025  HIT %:    86.2986  MISS %:    13.7014   MPKI: 3.081
PSCL2 LOAD TRANSLATION ACCESS:     562168  HIT:     485143  MISS:      77025  HIT %:    86.2986  MISS %:    13.7014   MPKI: 3.081
PSCL2 PREFETCH  REQUESTED:          0  ISSUED:          0  USEFUL:          0  USELESS:          0
PSCL2 USEFUL LOAD PREFETCHES:          0 PREFETCH ISSUED TO LOWER LEVEL:          0  ACCURACY: -nan
PSCL2 TIMELY PREFETCHES:          0 LATE PREFETCHES: 0 DROPPED PREFETCHES: 0
PSCL2 PREFETCHES SAME FILL-ORIGIN LEVEL: 0 DIFFERENT FILL-ORIGIN LEVEL: 0

LLC TOTAL     ACCESS:    5205056  HIT:    4437665  MISS:     767391  HIT %:    85.2568  MISS %:    14.7432   MPKI: 30.6956
LLC LOAD      ACCESS:     921846  HIT:     878885  MISS:      42961  HIT %:    95.3397  MISS %:    4.66032   MPKI: 1.71844
LLC RFO       ACCESS:      68337  HIT:      67414  MISS:        923  HIT %:    98.6493  MISS %:    1.35066   MPKI: 0.03692
LLC PREFETCH  ACCESS:    3099351  HIT:    2390761  MISS:     708590  HIT %:    77.1375  MISS %:    22.8625   MPKI: 28.3436
AGUS PREFETCH L1 MISS: 0
LLC WRITEBACK ACCESS:     557335  HIT:     557335  MISS:          0  HIT %:        100  MISS %:          0   MPKI: 0
LLC LOAD TRANSLATION ACCESS:     557784  HIT:     542871  MISS:      14913  HIT %:    97.3264  MISS %:    2.67362   MPKI: 0.59652
LLC TRANSLATION FROM L1D PREFETCHER ACCESS:        403  HIT:        399  MISS:          4  HIT %:    99.0074  MISS %:   0.992556   MPKI: 0.00016
LLC PREFETCH  REQUESTED:          0  ISSUED:          0  USEFUL:     600383  USELESS:      93677
LLC USEFUL LOAD PREFETCHES:     600383 PREFETCH ISSUED TO LOWER LEVEL:     708593  ACCURACY: 84.7289
LLC TIMELY PREFETCHES:     600383 LATE PREFETCHES: 0 DROPPED PREFETCHES: 0
LLC PREFETCHES SAME FILL-ORIGIN LEVEL: 0 DIFFERENT FILL-ORIGIN LEVEL: 0
LLC AVERAGE MISS LATENCY: 209.834 cycles
LLC RQ	ACCESS:    1548370	FORWARD:          0	MERGED:          0	TO_CACHE:    1548370
LLC WQ	ACCESS:     557335	FORWARD:          0	MERGED:          0	TO_CACHE:     557335
LLC PQ	ACCESS:    3099354	FORWARD:          0	MERGED:          0	TO_CACHE:    3099354

LLC Dense regions hint to LLC: 0

RAW hits: 500884
Loads Generated: 6650541
Loads sent to L1D: 6149655
Stores Generated: 1108674
Stores sent to L1D: 1108674
Major fault: 0 Minor fault: 23115
Allocated PAGES: 23115
CPU 0 L1D optimized prefetcher final stats
Degree: 5
Total loads7133655

DRAM Statistics
 CHANNEL 0
 RQ ROW_BUFFER_HIT:       9840  ROW_BUFFER_MISS:     757552
 DBUS_CONGESTED:          8
 WQ ROW_BUFFER_HIT:     154906  ROW_BUFFER_MISS:     413664  FULL:          0

 AVG_CONGESTED_CYCLE: 4
 All warmup complete: 2
Channel 0 Bank busy for read cycles: 0
Channel 0 Bank busy for write cycles: 0
Channel 0
Rank 0
0banks busy for read cycles: 150747
0banks busy for write cycles: 276
1banks busy for read cycles: 12148844
1banks busy for write cycles: 163100
2banks busy for read cycles: 14921329
2banks busy for write cycles: 171649
3banks busy for read cycles: 10279899
3banks busy for write cycles: 190483
4banks busy for read cycles: 4433793
4banks busy for write cycles: 190226
5banks busy for read cycles: 1210857
5banks busy for write cycles: 176964
6banks busy for read cycles: 1845647
6banks busy for write cycles: 202503
7banks busy for read cycles: 746668
7banks busy for write cycles: 937059
8banks busy for read cycles: 277064
8banks busy for write cycles: 15885949

CPU 0 Branch Prediction Accuracy: 99.9685% MPKI: 0.04912 Average ROB Occupancy at Mispredict: 157.09
Branch types
NOT_BRANCH: 21105674 84.4227%
BRANCH_DIRECT_JUMP: 568311 2.27324%
BRANCH_INDIRECT: 0 0%
BRANCH_CONDITIONAL: 2217340 8.86936%
BRANCH_DIRECT_CALL: 554335 2.21734%
BRANCH_INDIRECT_CALL: 0 0%
BRANCH_RETURN: 554335 2.21734%
BRANCH_OTHER: 0 0%

DRAM PAGES: 1048576
Allocated PAGES: 23115
