
*** ChampSim Multicore Out-of-Order Simulator ***

Warmup Instructions: 25000000
Simulation Instructions: 25000000
Number of CPUs: 1
LLC sets: 2048
LLC ways: 16
Off-chip DRAM Size: 4096 MB Channels: 1 Width: 64-bit Data Rate: 6400 MT/s
CPU 0 runs given/traces/trace2.champsimtrace.xz
.xz
CPU 0 Bimodal branch predictor
BTB has LRU replacement policy
ITLB has LRU replacement policy
DTLB has LRU replacement policy
CPU 0 STLB arbitrary stride prefetcher
STLB has LRU replacement policy
L1I has LRU replacement policy
CPU 0 L1D Optimized prefetcher
L1D has LRU replacement policy
L2C has LRU replacement policy
LLC has LRU replacement policy
Heartbeat CPU 0 instructions: 10000002 cycles: 3798494 heartbeat IPC: 2.63262 cumulative IPC: 2.63262 (Simulation time: 0 hr 0 min 31 sec) 
Heartbeat CPU 0 instructions: 20000001 cycles: 7599371 heartbeat IPC: 2.63097 cumulative IPC: 2.6318 (Simulation time: 0 hr 1 min 2 sec) 

Warmup complete CPU 0 instructions: 25000001 cycles: 9498887 (Simulation time: 0 hr 1 min 18 sec) 

IP stride coverage after phase end: 0.774658 weight: 0.599529
CPLX coverage after phase end: 0.81645 weight: 0.618187
NL stride coverage after phase end: 0.845727 weight: 0.613934
Best prefetcher: 2
Heartbeat CPU 0 instructions: 30000001 cycles: 23148565 heartbeat IPC: 0.64312 cumulative IPC: 0.366309 (Simulation time: 0 hr 1 min 46 sec) 
Heartbeat CPU 0 instructions: 40000002 cycles: 50037509 heartbeat IPC: 0.3719 cumulative IPC: 0.370018 (Simulation time: 0 hr 2 min 42 sec) 
Heartbeat CPU 0 instructions: 50000000 cycles: 76418798 heartbeat IPC: 0.379056 cumulative IPC: 0.373581 (Simulation time: 0 hr 3 min 39 sec) 
Finished CPU 0 instructions: 25000000 cycles: 66919933 cumulative IPC: 0.373581 (Simulation time: 0 hr 3 min 39 sec) 

ChampSim completed all CPUs

Region of Interest Statistics

CPU 0 cumulative IPC: 0.373581 instructions: 25000000 cycles: 66919933
ITLB TOTAL     ACCESS:    4555017  HIT:    4555017  MISS:          0  HIT %:        100  MISS %:          0   MPKI: 0
ITLB LOAD TRANSLATION ACCESS:    4555017  HIT:    4555017  MISS:          0  HIT %:        100  MISS %:          0   MPKI: 0
ITLB PREFETCH  REQUESTED:          0  ISSUED:          0  USEFUL:          0  USELESS:          0
ITLB USEFUL LOAD PREFETCHES:          0 PREFETCH ISSUED TO LOWER LEVEL:          0  ACCURACY: -nan
ITLB TIMELY PREFETCHES:          0 LATE PREFETCHES: 0 DROPPED PREFETCHES: 0
ITLB PREFETCHES SAME FILL-ORIGIN LEVEL: 0 DIFFERENT FILL-ORIGIN LEVEL: 0
ITLB AVERAGE MISS LATENCY: -nan cycles
ITLB RQ	ACCESS:    4640430	FORWARD:          0	MERGED:      85413	TO_CACHE:    4555017

DTLB TOTAL     ACCESS:    3872908  HIT:    3838893  MISS:      34015  HIT %:    99.1217  MISS %:   0.878281   MPKI: 1.3606
DTLB LOAD TRANSLATION ACCESS:    3872908  HIT:    3838893  MISS:      34015  HIT %:    99.1217  MISS %:   0.878281   MPKI: 1.3606
DTLB PREFETCH  REQUESTED:          0  ISSUED:          0  USEFUL:          0  USELESS:          0
DTLB USEFUL LOAD PREFETCHES:          0 PREFETCH ISSUED TO LOWER LEVEL:          0  ACCURACY: -nan
DTLB TIMELY PREFETCHES:          0 LATE PREFETCHES: 0 DROPPED PREFETCHES: 0
DTLB PREFETCHES SAME FILL-ORIGIN LEVEL: 0 DIFFERENT FILL-ORIGIN LEVEL: 0
DTLB AVERAGE MISS LATENCY: 85.9668 cycles
DTLB RQ	ACCESS:    4557550	FORWARD:          0	MERGED:     684560	TO_CACHE:    3872990

STLB TOTAL     ACCESS:    3092477  HIT:    3059766  MISS:      32711  HIT %:    98.9422  MISS %:    1.05776   MPKI: 1.30844
STLB LOAD TRANSLATION ACCESS:      34015  HIT:      11125  MISS:      22890  HIT %:    32.7062  MISS %:    67.2938   MPKI: 0.9156
STLB PREFETCH TRANSLATION ACCESS:      44062  HIT:      34249  MISS:       9813  HIT %:    77.7291  MISS %:    22.2709   MPKI: 0.39252
STLB TRANSLATION FROM L1D PREFETCHER ACCESS:    3014400  HIT:    3014392  MISS:          8  HIT %:    99.9997  MISS %: 0.000265393   MPKI: 0.00032
STLB PREFETCH  REQUESTED:     188290  ISSUED:     150924  USEFUL:       9771  USELESS:         25
STLB USEFUL LOAD PREFETCHES:       9771 PREFETCH ISSUED TO LOWER LEVEL:     115352  ACCURACY: 8.47059
STLB TIMELY PREFETCHES:       9771 LATE PREFETCHES: 0 DROPPED PREFETCHES: 105539
STLB PREFETCHES SAME FILL-ORIGIN LEVEL: 115352 DIFFERENT FILL-ORIGIN LEVEL: 0
STLB AVERAGE MISS LATENCY: 116.968 cycles
STLB RQ	ACCESS:   14571339	FORWARD:          0	MERGED:   11522924	TO_CACHE:    3048415
STLB PQ	ACCESS:     150924	FORWARD:          0	MERGED:       1323	TO_CACHE:     149601

STLB Hit, L1D data hit: 0
STLB Hit, L2C data hit: 0
STLB Hit, LLC data hit: 0
STLB Hit, LLC data miss: 0
STLB STLB hints to L2: 0
L1D TOTAL     ACCESS:   11321883  HIT:    9490542  MISS:    1831341  HIT %:    83.8248  MISS %:    16.1752   MPKI: 73.2536
L1D LOAD      ACCESS:    4205407  HIT:    3925116  MISS:     280291  HIT %:     93.335  MISS %:    6.66501   MPKI: 11.2116
L1D RFO       ACCESS:     333324  HIT:     333310  MISS:         14  HIT %:    99.9958  MISS %: 0.00420012   MPKI: 0.00056
L1D PREFETCH  ACCESS:    6783152  HIT:    5232116  MISS:    1551036  HIT %:     77.134  MISS %:     22.866   MPKI: 62.0414
AGUS PREFETCH L1 MISS: 0
L1D PREFETCH  REQUESTED:   34686201  ISSUED:   34657015  USEFUL:    1474414  USELESS:      76530
L1D USEFUL LOAD PREFETCHES:    1474414 PREFETCH ISSUED TO LOWER LEVEL:    1787912  ACCURACY: 82.4657
L1D TIMELY PREFETCHES:    1474414 LATE PREFETCHES: 236875 DROPPED PREFETCHES: 0
L1D PREFETCHES SAME FILL-ORIGIN LEVEL: 1787912 DIFFERENT FILL-ORIGIN LEVEL: 0
L1D AVERAGE MISS LATENCY: 120.788 cycles
L1D RQ	ACCESS:    8972962	FORWARD:          0	MERGED:    4747183	TO_CACHE:    4224222
L1D WQ	ACCESS:     370377	FORWARD:       1557	MERGED:      37049	TO_CACHE:     333328
L1D PQ	ACCESS:   20119691	FORWARD:          0	MERGED:    5582367	TO_CACHE:   14537324

L1D UNIQUE REGIONS ACCESSED: 0
L1D REGIONS CONFLICTS: 0
L1D Cross Page Prefetch Requests: 0
L1D Same Page Prefetch Requests: 20119691
L1D ROI Sum of L1D PQ occupancy: 204178812
L1D PREFETCHES PUSHED FROM L2C: 0
L1I TOTAL     ACCESS:    4640429  HIT:    4640429  MISS:          0  HIT %:        100  MISS %:          0   MPKI: 0
L1I LOAD      ACCESS:    4640429  HIT:    4640429  MISS:          0  HIT %:        100  MISS %:          0   MPKI: 0
L1I PREFETCH  REQUESTED:          0  ISSUED:          0  USEFUL:          0  USELESS:          0
L1I USEFUL LOAD PREFETCHES:          0 PREFETCH ISSUED TO LOWER LEVEL:          0  ACCURACY: -nan
L1I TIMELY PREFETCHES:          0 LATE PREFETCHES: 0 DROPPED PREFETCHES: 0
L1I PREFETCHES SAME FILL-ORIGIN LEVEL: 0 DIFFERENT FILL-ORIGIN LEVEL: 0
L1I AVERAGE MISS LATENCY: -nan cycles
L1I RQ	ACCESS:    6965045	FORWARD:          0	MERGED:    2324615	TO_CACHE:    4640430

BTB TOTAL     ACCESS:    5953193  HIT:    5953095  MISS:         98  HIT %:    99.9984  MISS %: 0.00164618   MPKI: 0.00392
BTB BRANCH_DIRECT_JUMP	ACCESS:      85874  HIT:      85848  MISS:         26
BTB BRANCH_INDIRECT	ACCESS:          0  HIT:          0  MISS:          0
BTB BRANCH_CONDITIONAL	ACCESS:    5783213  HIT:    5783164  MISS:         49
BTB BRANCH_DIRECT_CALL	ACCESS:      42053  HIT:      42043  MISS:         10
BTB BRANCH_INDIRECT_CALL	ACCESS:          0  HIT:          0  MISS:          0
BTB BRANCH_RETURN	ACCESS:      42053  HIT:      42040  MISS:         13
BTB BRANCH_OTHER ACCESS:          0  HIT:          0  MISS:          0

L2C TOTAL     ACCESS:    1973288  HIT:     170983  MISS:    1802305  HIT %:    8.66488  MISS %:    91.3351   MPKI: 72.0922
L2C LOAD      ACCESS:      43416  HIT:       5734  MISS:      37682  HIT %:    13.2071  MISS %:    86.7929   MPKI: 1.50728
L2C DATA LOAD MPKI: 1.50728
L2C INSTRUCTION LOAD MPKI: 0
L2C RFO       ACCESS:         13  HIT:          0  MISS:         13  HIT %:          0  MISS %:        100   MPKI: 0.00052
L2C PREFETCH  ACCESS:    1787912  HIT:      32274  MISS:    1755638  HIT %:    1.80512  MISS %:    98.1949   MPKI: 70.2255
AGUS PREFETCH L1 MISS: 0
L2C DATA PREFETCH MPKI: 70.2255
L2C INSTRUCTION PREFETCH MPKI: 0
L2C WRITEBACK ACCESS:       2818  HIT:       2795  MISS:         23  HIT %:    99.1838  MISS %:   0.816182   MPKI: 0.00092
L2C LOAD TRANSLATION ACCESS:      23466  HIT:      18858  MISS:       4608  HIT %:    80.3631  MISS %:    19.6369   MPKI: 0.18432
L2C PREFETCH TRANSLATION ACCESS:     115650  HIT:     111321  MISS:       4329  HIT %:    96.2568  MISS %:    3.74319   MPKI: 0.17316
L2C TRANSLATION FROM L1D PREFETCHER ACCESS:         13  HIT:          1  MISS:         12  HIT %:    7.69231  MISS %:    92.3077   MPKI: 0.00048
L2C PREFETCH  REQUESTED:          0  ISSUED:          0  USEFUL:       5765  USELESS:    1746256
L2C USEFUL LOAD PREFETCHES:       5765 PREFETCH ISSUED TO LOWER LEVEL:    1755638  ACCURACY: 0.328371
L2C TIMELY PREFETCHES:       5765 LATE PREFETCHES: 0 DROPPED PREFETCHES: 0
L2C PREFETCHES SAME FILL-ORIGIN LEVEL: 0 DIFFERENT FILL-ORIGIN LEVEL: 0
L2C AVERAGE MISS LATENCY: 108.258 cycles
L2C RQ	ACCESS:     182557	FORWARD:          0	MERGED:          0	TO_CACHE:     182557
L2C WQ	ACCESS:       2818	FORWARD:          0	MERGED:          0	TO_CACHE:       2818
L2C PQ	ACCESS:    1787912	FORWARD:          0	MERGED:          0	TO_CACHE:    1787912

L2C Instructions Evicting Data 0
L2C Translations Evicting Data 8915
L2C Data Evicting Data 1784431
L2C Instructions Evicting Instructions 0
L2C Translations Evicting Instructions 0
L2C Data Evicting Instructions 0
L2C Instructions Evicting Translations 0
L2C Translations Evicting Translations 34
L2C Data Evicting Translations 8902
L2C Dense regions hint from L2: 0
PSCL5 TOTAL     ACCESS:     138250  HIT:     138250  MISS:          0  HIT %:        100  MISS %:          0   MPKI: 0
PSCL5 LOAD TRANSLATION ACCESS:      22890  HIT:      22890  MISS:          0  HIT %:        100  MISS %:          0   MPKI: 0
PSCL5 PREFETCH TRANSLATION ACCESS:     115352  HIT:     115352  MISS:          0  HIT %:        100  MISS %:          0   MPKI: 0
PSCL5 TRANSLATION FROM L1D PREFETCHER ACCESS:          8  HIT:          8  MISS:          0  HIT %:        100  MISS %:          0   MPKI: 0
PSCL5 PREFETCH  REQUESTED:          0  ISSUED:          0  USEFUL:          0  USELESS:          0
PSCL5 USEFUL LOAD PREFETCHES:          0 PREFETCH ISSUED TO LOWER LEVEL:          0  ACCURACY: -nan
PSCL5 TIMELY PREFETCHES:          0 LATE PREFETCHES: 0 DROPPED PREFETCHES: 0
PSCL5 PREFETCHES SAME FILL-ORIGIN LEVEL: 0 DIFFERENT FILL-ORIGIN LEVEL: 0

PSCL4 TOTAL     ACCESS:     138250  HIT:     138250  MISS:          0  HIT %:        100  MISS %:          0   MPKI: 0
PSCL4 LOAD TRANSLATION ACCESS:      22890  HIT:      22890  MISS:          0  HIT %:        100  MISS %:          0   MPKI: 0
PSCL4 PREFETCH TRANSLATION ACCESS:     115352  HIT:     115352  MISS:          0  HIT %:        100  MISS %:          0   MPKI: 0
PSCL4 TRANSLATION FROM L1D PREFETCHER ACCESS:          8  HIT:          8  MISS:          0  HIT %:        100  MISS %:          0   MPKI: 0
PSCL4 PREFETCH  REQUESTED:          0  ISSUED:          0  USEFUL:          0  USELESS:          0
PSCL4 USEFUL LOAD PREFETCHES:          0 PREFETCH ISSUED TO LOWER LEVEL:          0  ACCURACY: -nan
PSCL4 TIMELY PREFETCHES:          0 LATE PREFETCHES: 0 DROPPED PREFETCHES: 0
PSCL4 PREFETCHES SAME FILL-ORIGIN LEVEL: 0 DIFFERENT FILL-ORIGIN LEVEL: 0

PSCL3 TOTAL     ACCESS:     137348  HIT:     137345  MISS:          3  HIT %:    99.9978  MISS %: 0.00218423   MPKI: 0.00012
PSCL3 LOAD TRANSLATION ACCESS:      22717  HIT:      22714  MISS:          3  HIT %:    99.9868  MISS %:   0.013206   MPKI: 0.00012
PSCL3 PREFETCH TRANSLATION ACCESS:     114624  HIT:     114624  MISS:          0  HIT %:        100  MISS %:          0   MPKI: 0
PSCL3 TRANSLATION FROM L1D PREFETCHER ACCESS:          7  HIT:          7  MISS:          0  HIT %:        100  MISS %:          0   MPKI: 0
PSCL3 PREFETCH  REQUESTED:          0  ISSUED:          0  USEFUL:          0  USELESS:          0
PSCL3 USEFUL LOAD PREFETCHES:          0 PREFETCH ISSUED TO LOWER LEVEL:          0  ACCURACY: -nan
PSCL3 TIMELY PREFETCHES:          0 LATE PREFETCHES: 0 DROPPED PREFETCHES: 0
PSCL3 PREFETCHES SAME FILL-ORIGIN LEVEL: 0 DIFFERENT FILL-ORIGIN LEVEL: 0

PSCL2 TOTAL     ACCESS:     137304  HIT:     136591  MISS:        713  HIT %:    99.4807  MISS %:   0.519286   MPKI: 0.02852
PSCL2 LOAD TRANSLATION ACCESS:      22931  HIT:      22218  MISS:        713  HIT %:    96.8907  MISS %:    3.10933   MPKI: 0.02852
PSCL2 PREFETCH TRANSLATION ACCESS:     114369  HIT:     114369  MISS:          0  HIT %:        100  MISS %:          0   MPKI: 0
PSCL2 TRANSLATION FROM L1D PREFETCHER ACCESS:          4  HIT:          4  MISS:          0  HIT %:        100  MISS %:          0   MPKI: 0
PSCL2 PREFETCH  REQUESTED:          0  ISSUED:          0  USEFUL:          0  USELESS:          0
PSCL2 USEFUL LOAD PREFETCHES:          0 PREFETCH ISSUED TO LOWER LEVEL:          0  ACCURACY: -nan
PSCL2 TIMELY PREFETCHES:          0 LATE PREFETCHES: 0 DROPPED PREFETCHES: 0
PSCL2 PREFETCHES SAME FILL-ORIGIN LEVEL: 0 DIFFERENT FILL-ORIGIN LEVEL: 0

LLC TOTAL     ACCESS:    1805057  HIT:       5638  MISS:    1799419  HIT %:   0.312345  MISS %:    99.6877   MPKI: 71.9768
LLC LOAD      ACCESS:      37682  HIT:        534  MISS:      37148  HIT %:    1.41712  MISS %:    98.5829   MPKI: 1.48592
LLC RFO       ACCESS:         13  HIT:          0  MISS:         13  HIT %:          0  MISS %:        100   MPKI: 0.00052
LLC PREFETCH  ACCESS:    1755638  HIT:       1950  MISS:    1753688  HIT %:   0.111071  MISS %:    99.8889   MPKI: 70.1475
AGUS PREFETCH L1 MISS: 0
LLC WRITEBACK ACCESS:       2775  HIT:       2765  MISS:         10  HIT %:    99.6396  MISS %:    0.36036   MPKI: 0.0004
LLC LOAD TRANSLATION ACCESS:       4608  HIT:        268  MISS:       4340  HIT %:    5.81597  MISS %:     94.184   MPKI: 0.1736
LLC PREFETCH TRANSLATION ACCESS:       4329  HIT:        121  MISS:       4208  HIT %:     2.7951  MISS %:    97.2049   MPKI: 0.16832
LLC TRANSLATION FROM L1D PREFETCHER ACCESS:         12  HIT:          0  MISS:         12  HIT %:          0  MISS %:        100   MPKI: 0.00048
LLC PREFETCH  REQUESTED:          0  ISSUED:          0  USEFUL:        127  USELESS:    1725992
LLC USEFUL LOAD PREFETCHES:        127 PREFETCH ISSUED TO LOWER LEVEL:    1753688  ACCURACY: 0.00724188
LLC TIMELY PREFETCHES:        127 LATE PREFETCHES: 0 DROPPED PREFETCHES: 0
LLC PREFETCHES SAME FILL-ORIGIN LEVEL: 0 DIFFERENT FILL-ORIGIN LEVEL: 0
LLC AVERAGE MISS LATENCY: 78.2813 cycles
LLC RQ	ACCESS:      46643	FORWARD:          0	MERGED:          0	TO_CACHE:      46643
LLC WQ	ACCESS:       2775	FORWARD:          0	MERGED:          0	TO_CACHE:       2775
LLC PQ	ACCESS:    1755638	FORWARD:          0	MERGED:          0	TO_CACHE:    1755638

LLC Dense regions hint to LLC: 0

RAW hits: 3999
Loads Generated: 8976961
Loads sent to L1D: 8972962
Stores Generated: 370377
Stores sent to L1D: 370377
Major fault: 0 Minor fault: 48857
Allocated PAGES: 48857
CPU 0 L1D optimized prefetcher final stats
Degree: 5
Total loads10824008
CPU 0 STLB arbitrary stride prefetcher final stats
Degree: 10

DRAM Statistics
 CHANNEL 0
 RQ ROW_BUFFER_HIT:    1669734  ROW_BUFFER_MISS:     129674
 DBUS_CONGESTED:        370
 WQ ROW_BUFFER_HIT:        342  ROW_BUFFER_MISS:       2430  FULL:          0

 AVG_CONGESTED_CYCLE: 4
 All warmup complete: 2
Channel 0 Bank busy for read cycles: 0
Channel 0 Bank busy for write cycles: 0
Channel 0
Rank 0
0banks busy for read cycles: 16084453
0banks busy for write cycles: 1268
1banks busy for read cycles: 13824798
1banks busy for write cycles: 306287
2banks busy for read cycles: 27812657
2banks busy for write cycles: 164915
3banks busy for read cycles: 5224124
3banks busy for write cycles: 62653
4banks busy for read cycles: 971832
4banks busy for write cycles: 31113
5banks busy for read cycles: 697840
5banks busy for write cycles: 15359
6banks busy for read cycles: 1542447
6banks busy for write cycles: 9922
7banks busy for read cycles: 142730
7banks busy for write cycles: 3068
8banks busy for read cycles: 23581
8banks busy for write cycles: 887

CPU 0 Branch Prediction Accuracy: 99.1323% MPKI: 3.09396 Average ROB Occupancy at Mispredict: 107.551
Branch types
NOT_BRANCH: 16085561 64.3422%
BRANCH_DIRECT_JUMP: 85874 0.343496%
BRANCH_INDIRECT: 0 0%
BRANCH_CONDITIONAL: 8744101 34.9764%
BRANCH_DIRECT_CALL: 42053 0.168212%
BRANCH_INDIRECT_CALL: 0 0%
BRANCH_RETURN: 42053 0.168212%
BRANCH_OTHER: 0 0%

DRAM PAGES: 1048576
Allocated PAGES: 48857
