
*** ChampSim Multicore Out-of-Order Simulator ***

Warmup Instructions: 25000000
Simulation Instructions: 25000000
Number of CPUs: 1
LLC sets: 2048
LLC ways: 16
Off-chip DRAM Size: 4096 MB Channels: 1 Width: 64-bit Data Rate: 6400 MT/s
CPU 0 runs given/traces/trace1.champsimtrace.xz
.xz
CPU 0 Bimodal branch predictor
BTB has LRU replacement policy
ITLB has LRU replacement policy
DTLB has LRU replacement policy
CPU 0 STLB arbitrary stride prefetcher
STLB has LRU replacement policy
L1I has LRU replacement policy
CPU 0 L1D Optimized prefetcher
L1D has LRU replacement policy
L2C has LRU replacement policy
LLC has LRU replacement policy
Heartbeat CPU 0 instructions: 10000003 cycles: 2825264 heartbeat IPC: 3.53949 cumulative IPC: 3.53949 (Simulation time: 0 hr 0 min 49 sec) 
Heartbeat CPU 0 instructions: 20000003 cycles: 5637514 heartbeat IPC: 3.55587 cumulative IPC: 3.54766 (Simulation time: 0 hr 1 min 34 sec) 

Warmup complete CPU 0 instructions: 25000004 cycles: 7049189 (Simulation time: 0 hr 1 min 57 sec) 

Useful: 0 Total: 74
IP stride accuracy after phase end: 0
Useful: 0 Total: 88
CPLX accuracy after phase end: 0
Useful: 25 Total: 7432
NL stride accuracy after phase end: 0.336383
Most accurate prefetcher: 2
Heartbeat CPU 0 instructions: 30000002 cycles: 19509964 heartbeat IPC: 0.720853 cumulative IPC: 0.401259 (Simulation time: 0 hr 2 min 54 sec) 
Heartbeat CPU 0 instructions: 40000002 cycles: 46905581 heartbeat IPC: 0.365022 cumulative IPC: 0.376351 (Simulation time: 0 hr 4 min 52 sec) 
Retire attempted: 68790597 Failed due to ip: 11505 Failed due to non completion: 0 Retired instructions: 49338410
Heartbeat CPU 0 instructions: 50000000 cycles: 71648620 heartbeat IPC: 0.404154 cumulative IPC: 0.387 (Simulation time: 0 hr 6 min 47 sec) 
Finished CPU 0 instructions: 25000000 cycles: 64599432 cumulative IPC: 0.387 (Simulation time: 0 hr 6 min 47 sec) 

ChampSim completed all CPUs

Region of Interest Statistics

CPU 0 cumulative IPC: 0.387 instructions: 25000000 cycles: 64599432
ITLB TOTAL     ACCESS:    4481288  HIT:    4481288  MISS:          0  HIT %:        100  MISS %:          0   MPKI: 0
ITLB LOAD TRANSLATION ACCESS:    4481288  HIT:    4481288  MISS:          0  HIT %:        100  MISS %:          0   MPKI: 0
ITLB PREFETCH  REQUESTED:          0  ISSUED:          0  USEFUL:          0  USELESS:          0
ITLB USEFUL LOAD PREFETCHES:          0 PREFETCH ISSUED TO LOWER LEVEL:          0  ACCURACY: -nan
ITLB TIMELY PREFETCHES:          0 LATE PREFETCHES: 0 DROPPED PREFETCHES: 0
ITLB PREFETCHES SAME FILL-ORIGIN LEVEL: 0 DIFFERENT FILL-ORIGIN LEVEL: 0
ITLB AVERAGE MISS LATENCY: -nan cycles
ITLB RQ	ACCESS:    4821580	FORWARD:          0	MERGED:     340293	TO_CACHE:    4481287

DTLB TOTAL     ACCESS:    3792927  HIT:    3130233  MISS:     662694  HIT %:    82.5282  MISS %:    17.4718   MPKI: 26.5078
DTLB LOAD TRANSLATION ACCESS:    3792927  HIT:    3130233  MISS:     662694  HIT %:    82.5282  MISS %:    17.4718   MPKI: 26.5078
DTLB PREFETCH  REQUESTED:          0  ISSUED:          0  USEFUL:          0  USELESS:          0
DTLB USEFUL LOAD PREFETCHES:          0 PREFETCH ISSUED TO LOWER LEVEL:          0  ACCURACY: -nan
DTLB TIMELY PREFETCHES:          0 LATE PREFETCHES: 0 DROPPED PREFETCHES: 0
DTLB PREFETCHES SAME FILL-ORIGIN LEVEL: 0 DIFFERENT FILL-ORIGIN LEVEL: 0
DTLB AVERAGE MISS LATENCY: 83.7526 cycles
DTLB RQ	ACCESS:    4386017	FORWARD:          0	MERGED:     588909	TO_CACHE:    3797108

STLB TOTAL     ACCESS:    3725684  HIT:    3009114  MISS:     716570  HIT %:    80.7668  MISS %:    19.2332   MPKI: 28.6628
STLB LOAD TRANSLATION ACCESS:     662694  HIT:     103805  MISS:     558889  HIT %:    15.6641  MISS %:    84.3359   MPKI: 22.3556
STLB PREFETCH TRANSLATION ACCESS:     535329  HIT:     377852  MISS:     157477  HIT %:    70.5831  MISS %:    29.4169   MPKI: 6.29908
STLB TRANSLATION FROM L1D PREFETCHER ACCESS:    2527661  HIT:    2527457  MISS:        204  HIT %:    99.9919  MISS %:  0.0080707   MPKI: 0.00816
STLB PREFETCH  REQUESTED:     595664  ISSUED:     587954  USEFUL:       4184  USELESS:     154276
STLB USEFUL LOAD PREFETCHES:       4184 PREFETCH ISSUED TO LOWER LEVEL:     195490  ACCURACY: 2.14026
STLB TIMELY PREFETCHES:       4184 LATE PREFETCHES: 1617 DROPPED PREFETCHES: 36399
STLB PREFETCHES SAME FILL-ORIGIN LEVEL: 195490 DIFFERENT FILL-ORIGIN LEVEL: 0
STLB AVERAGE MISS LATENCY: 169.258 cycles
STLB RQ	ACCESS:   12585834	FORWARD:          0	MERGED:    9395475	TO_CACHE:    3190359
STLB PQ	ACCESS:     587954	FORWARD:          0	MERGED:       2337	TO_CACHE:     585617

STLB Hit, L1D data hit: 0
STLB Hit, L2C data hit: 0
STLB Hit, LLC data hit: 0
STLB Hit, LLC data miss: 0
STLB STLB hints to L2: 0
L1D TOTAL     ACCESS:   15817025  HIT:   10423202  MISS:    5393823  HIT %:    65.8986  MISS %:    34.1014   MPKI: 215.753
L1D LOAD      ACCESS:    3256380  HIT:    2030966  MISS:    1225414  HIT %:    62.3688  MISS %:    37.6312   MPKI: 49.0166
L1D RFO       ACCESS:    1108656  HIT:    1039297  MISS:      69359  HIT %:    93.7439  MISS %:    6.25613   MPKI: 2.77436
L1D PREFETCH  ACCESS:   11451989  HIT:    7352939  MISS:    4099050  HIT %:    64.2067  MISS %:    35.7933   MPKI: 163.962
AGUS PREFETCH L1 MISS: 0
L1D PREFETCH  REQUESTED:   27777254  ISSUED:   27696415  USEFUL:      19568  USELESS:    4078903
L1D USEFUL LOAD PREFETCHES:      19568 PREFETCH ISSUED TO LOWER LEVEL:    4103076  ACCURACY: 0.47691
L1D TIMELY PREFETCHES:      19568 LATE PREFETCHES: 4023 DROPPED PREFETCHES: 0
L1D PREFETCHES SAME FILL-ORIGIN LEVEL: 4103076 DIFFERENT FILL-ORIGIN LEVEL: 0
L1D AVERAGE MISS LATENCY: 68.9447 cycles
L1D RQ	ACCESS:    6152790	FORWARD:          0	MERGED:    2819639	TO_CACHE:    3277358
L1D WQ	ACCESS:    1108674	FORWARD:      55793	MERGED:         15	TO_CACHE:    1108659
L1D PQ	ACCESS:   15773277	FORWARD:          0	MERGED:    3850139	TO_CACHE:   11923138

L1D UNIQUE REGIONS ACCESSED: 0
L1D REGIONS CONFLICTS: 0
L1D Cross Page Prefetch Requests: 0
L1D Same Page Prefetch Requests: 15773277
L1D ROI Sum of L1D PQ occupancy: 167246765
L1D PREFETCHES PUSHED FROM L2C: 0
L1I TOTAL     ACCESS:    4821581  HIT:    4821581  MISS:          0  HIT %:        100  MISS %:          0   MPKI: 0
L1I LOAD      ACCESS:    4821581  HIT:    4821581  MISS:          0  HIT %:        100  MISS %:          0   MPKI: 0
L1I PREFETCH  REQUESTED:          0  ISSUED:          0  USEFUL:          0  USELESS:          0
L1I USEFUL LOAD PREFETCHES:          0 PREFETCH ISSUED TO LOWER LEVEL:          0  ACCURACY: -nan
L1I TIMELY PREFETCHES:          0 LATE PREFETCHES: 0 DROPPED PREFETCHES: 0
L1I PREFETCHES SAME FILL-ORIGIN LEVEL: 0 DIFFERENT FILL-ORIGIN LEVEL: 0
L1I AVERAGE MISS LATENCY: -nan cycles
L1I RQ	ACCESS:    7315615	FORWARD:          0	MERGED:    2494035	TO_CACHE:    4821580

BTB TOTAL     ACCESS:    3283960  HIT:    3283952  MISS:          8  HIT %:    99.9998  MISS %: 0.000243608   MPKI: 0.00032
BTB BRANCH_DIRECT_JUMP	ACCESS:     568310  HIT:     568308  MISS:          2
BTB BRANCH_INDIRECT	ACCESS:          0  HIT:          0  MISS:          0
BTB BRANCH_CONDITIONAL	ACCESS:    1606983  HIT:    1606979  MISS:          4
BTB BRANCH_DIRECT_CALL	ACCESS:     554334  HIT:     554333  MISS:          1
BTB BRANCH_INDIRECT_CALL	ACCESS:          0  HIT:          0  MISS:          0
BTB BRANCH_RETURN	ACCESS:     554333  HIT:     554332  MISS:          1
BTB BRANCH_OTHER ACCESS:          0  HIT:          0  MISS:          0

L2C TOTAL     ACCESS:    6804039  HIT:    2126517  MISS:    4677522  HIT %:    31.2537  MISS %:    68.7463   MPKI: 187.101
L2C LOAD      ACCESS:    1221391  HIT:     299520  MISS:     921871  HIT %:    24.5229  MISS %:    75.4771   MPKI: 36.8748
L2C DATA LOAD MPKI: 36.8748
L2C INSTRUCTION LOAD MPKI: 0
L2C RFO       ACCESS:      69359  HIT:        958  MISS:      68401  HIT %:    1.38122  MISS %:    98.6188   MPKI: 2.73604
L2C PREFETCH  ACCESS:    4103073  HIT:    1003582  MISS:    3099491  HIT %:    24.4593  MISS %:    75.5407   MPKI: 123.98
AGUS PREFETCH L1 MISS: 0
L2C DATA PREFETCH MPKI: 123.98
L2C INSTRUCTION PREFETCH MPKI: 0
L2C WRITEBACK ACCESS:     554587  HIT:     554583  MISS:          4  HIT %:    99.9993  MISS %: 0.000721257   MPKI: 0.00016
L2C LOAD TRANSLATION ACCESS:     620371  HIT:     140412  MISS:     479959  HIT %:    22.6336  MISS %:    77.3664   MPKI: 19.1984
L2C PREFETCH TRANSLATION ACCESS:     234851  HIT:     127457  MISS:     107394  HIT %:    54.2714  MISS %:    45.7286   MPKI: 4.29576
L2C TRANSLATION FROM L1D PREFETCHER ACCESS:        407  HIT:          5  MISS:        402  HIT %:     1.2285  MISS %:    98.7715   MPKI: 0.01608
L2C PREFETCH  REQUESTED:          0  ISSUED:          0  USEFUL:      88662  USELESS:    3113398
L2C USEFUL LOAD PREFETCHES:      88662 PREFETCH ISSUED TO LOWER LEVEL:    3099494  ACCURACY: 2.86053
L2C TIMELY PREFETCHES:      88662 LATE PREFETCHES: 0 DROPPED PREFETCHES: 0
L2C PREFETCHES SAME FILL-ORIGIN LEVEL: 0 DIFFERENT FILL-ORIGIN LEVEL: 0
L2C AVERAGE MISS LATENCY: 66.25 cycles
L2C RQ	ACCESS:    2146381	FORWARD:          0	MERGED:          0	TO_CACHE:    2146381
L2C WQ	ACCESS:     554587	FORWARD:          0	MERGED:          0	TO_CACHE:     554587
L2C PQ	ACCESS:    4103076	FORWARD:          0	MERGED:          0	TO_CACHE:    4103076

L2C Instructions Evicting Data 0
L2C Translations Evicting Data 504678
L2C Data Evicting Data 3582663
L2C Instructions Evicting Instructions 0
L2C Translations Evicting Instructions 0
L2C Data Evicting Instructions 0
L2C Instructions Evicting Translations 0
L2C Translations Evicting Translations 83077
L2C Data Evicting Translations 507100
L2C Dense regions hint from L2: 0
PSCL5 TOTAL     ACCESS:     752974  HIT:     752974  MISS:          0  HIT %:        100  MISS %:          0   MPKI: 0
PSCL5 LOAD TRANSLATION ACCESS:     557277  HIT:     557277  MISS:          0  HIT %:        100  MISS %:          0   MPKI: 0
PSCL5 PREFETCH TRANSLATION ACCESS:     195493  HIT:     195493  MISS:          0  HIT %:        100  MISS %:          0   MPKI: 0
PSCL5 TRANSLATION FROM L1D PREFETCHER ACCESS:        204  HIT:        204  MISS:          0  HIT %:        100  MISS %:          0   MPKI: 0
PSCL5 PREFETCH  REQUESTED:          0  ISSUED:          0  USEFUL:          0  USELESS:          0
PSCL5 USEFUL LOAD PREFETCHES:          0 PREFETCH ISSUED TO LOWER LEVEL:          0  ACCURACY: -nan
PSCL5 TIMELY PREFETCHES:          0 LATE PREFETCHES: 0 DROPPED PREFETCHES: 0
PSCL5 PREFETCHES SAME FILL-ORIGIN LEVEL: 0 DIFFERENT FILL-ORIGIN LEVEL: 0

PSCL4 TOTAL     ACCESS:     752974  HIT:     752974  MISS:          0  HIT %:        100  MISS %:          0   MPKI: 0
PSCL4 LOAD TRANSLATION ACCESS:     557277  HIT:     557277  MISS:          0  HIT %:        100  MISS %:          0   MPKI: 0
PSCL4 PREFETCH TRANSLATION ACCESS:     195493  HIT:     195493  MISS:          0  HIT %:        100  MISS %:          0   MPKI: 0
PSCL4 TRANSLATION FROM L1D PREFETCHER ACCESS:        204  HIT:        204  MISS:          0  HIT %:        100  MISS %:          0   MPKI: 0
PSCL4 PREFETCH  REQUESTED:          0  ISSUED:          0  USEFUL:          0  USELESS:          0
PSCL4 USEFUL LOAD PREFETCHES:          0 PREFETCH ISSUED TO LOWER LEVEL:          0  ACCURACY: -nan
PSCL4 TIMELY PREFETCHES:          0 LATE PREFETCHES: 0 DROPPED PREFETCHES: 0
PSCL4 PREFETCHES SAME FILL-ORIGIN LEVEL: 0 DIFFERENT FILL-ORIGIN LEVEL: 0

PSCL3 TOTAL     ACCESS:     750989  HIT:     750989  MISS:          0  HIT %:        100  MISS %:          0   MPKI: 0
PSCL3 LOAD TRANSLATION ACCESS:     557277  HIT:     557277  MISS:          0  HIT %:        100  MISS %:          0   MPKI: 0
PSCL3 PREFETCH TRANSLATION ACCESS:     193508  HIT:     193508  MISS:          0  HIT %:        100  MISS %:          0   MPKI: 0
PSCL3 TRANSLATION FROM L1D PREFETCHER ACCESS:        204  HIT:        204  MISS:          0  HIT %:        100  MISS %:          0   MPKI: 0
PSCL3 PREFETCH  REQUESTED:          0  ISSUED:          0  USEFUL:          0  USELESS:          0
PSCL3 USEFUL LOAD PREFETCHES:          0 PREFETCH ISSUED TO LOWER LEVEL:          0  ACCURACY: -nan
PSCL3 TIMELY PREFETCHES:          0 LATE PREFETCHES: 0 DROPPED PREFETCHES: 0
PSCL3 PREFETCHES SAME FILL-ORIGIN LEVEL: 0 DIFFERENT FILL-ORIGIN LEVEL: 0

PSCL2 TOTAL     ACCESS:     722592  HIT:     645035  MISS:      77557  HIT %:    89.2668  MISS %:    10.7332   MPKI: 3.10228
PSCL2 LOAD TRANSLATION ACCESS:     571740  HIT:     494183  MISS:      77557  HIT %:    86.4349  MISS %:    13.5651   MPKI: 3.10228
PSCL2 PREFETCH TRANSLATION ACCESS:     150851  HIT:     150851  MISS:          0  HIT %:        100  MISS %:          0   MPKI: 0
PSCL2 TRANSLATION FROM L1D PREFETCHER ACCESS:          1  HIT:          1  MISS:          0  HIT %:        100  MISS %:          0   MPKI: 0
PSCL2 PREFETCH  REQUESTED:          0  ISSUED:          0  USEFUL:          0  USELESS:          0
PSCL2 USEFUL LOAD PREFETCHES:          0 PREFETCH ISSUED TO LOWER LEVEL:          0  ACCURACY: -nan
PSCL2 TIMELY PREFETCHES:          0 LATE PREFETCHES: 0 DROPPED PREFETCHES: 0
PSCL2 PREFETCHES SAME FILL-ORIGIN LEVEL: 0 DIFFERENT FILL-ORIGIN LEVEL: 0

LLC TOTAL     ACCESS:    5234395  HIT:    4446806  MISS:     787589  HIT %:    84.9536  MISS %:    15.0464   MPKI: 31.5036
LLC LOAD      ACCESS:     921871  HIT:     877626  MISS:      44245  HIT %:    95.2005  MISS %:    4.79948   MPKI: 1.7698
LLC RFO       ACCESS:      68401  HIT:      67383  MISS:       1018  HIT %:    98.5117  MISS %:    1.48828   MPKI: 0.04072
LLC PREFETCH  ACCESS:    3099491  HIT:    2387035  MISS:     712456  HIT %:    77.0138  MISS %:    22.9862   MPKI: 28.4982
AGUS PREFETCH L1 MISS: 0
LLC WRITEBACK ACCESS:     556877  HIT:     556877  MISS:          0  HIT %:        100  MISS %:          0   MPKI: 0
LLC LOAD TRANSLATION ACCESS:     479959  HIT:     467380  MISS:      12579  HIT %:    97.3792  MISS %:    2.62085   MPKI: 0.50316
LLC PREFETCH TRANSLATION ACCESS:     107394  HIT:      90107  MISS:      17287  HIT %:    83.9032  MISS %:    16.0968   MPKI: 0.69148
LLC TRANSLATION FROM L1D PREFETCHER ACCESS:        402  HIT:        398  MISS:          4  HIT %:     99.005  MISS %:   0.995025   MPKI: 0.00016
LLC PREFETCH  REQUESTED:          0  ISSUED:          0  USEFUL:     606521  USELESS:     108737
LLC USEFUL LOAD PREFETCHES:     606521 PREFETCH ISSUED TO LOWER LEVEL:     712459  ACCURACY: 85.1307
LLC TIMELY PREFETCHES:     606521 LATE PREFETCHES: 0 DROPPED PREFETCHES: 0
LLC PREFETCHES SAME FILL-ORIGIN LEVEL: 0 DIFFERENT FILL-ORIGIN LEVEL: 0
LLC AVERAGE MISS LATENCY: 212.001 cycles
LLC RQ	ACCESS:    1578029	FORWARD:          0	MERGED:          0	TO_CACHE:    1578029
LLC WQ	ACCESS:     556877	FORWARD:          0	MERGED:          0	TO_CACHE:     556877
LLC PQ	ACCESS:    3099494	FORWARD:          0	MERGED:          0	TO_CACHE:    3099494

LLC Dense regions hint to LLC: 0

RAW hits: 497739
Loads Generated: 6650532
Loads sent to L1D: 6152790
Stores Generated: 1108672
Stores sent to L1D: 1108674
Major fault: 0 Minor fault: 23115
Allocated PAGES: 23115
CPU 0 L1D optimized prefetcher final stats
Degree: 5
Total loads7120640
CPU 0 STLB arbitrary stride prefetcher final stats
Degree: 8

DRAM Statistics
 CHANNEL 0
 RQ ROW_BUFFER_HIT:      10430  ROW_BUFFER_MISS:     777159
 DBUS_CONGESTED:          9
 WQ ROW_BUFFER_HIT:     162259  ROW_BUFFER_MISS:     405684  FULL:          0

 AVG_CONGESTED_CYCLE: 4
 All warmup complete: 2
Channel 0 Bank busy for read cycles: 0
Channel 0 Bank busy for write cycles: 0
Channel 0
Rank 0
0banks busy for read cycles: 150865
0banks busy for write cycles: 255
1banks busy for read cycles: 12254028
1banks busy for write cycles: 158103
2banks busy for read cycles: 14543620
2banks busy for write cycles: 166879
3banks busy for read cycles: 10433547
3banks busy for write cycles: 184662
4banks busy for read cycles: 4780247
4banks busy for write cycles: 178557
5banks busy for read cycles: 1381935
5banks busy for write cycles: 163286
6banks busy for read cycles: 1834541
6banks busy for write cycles: 171045
7banks busy for read cycles: 808277
7banks busy for write cycles: 927372
8banks busy for read cycles: 353411
8banks busy for write cycles: 16108803

CPU 0 Branch Prediction Accuracy: 99.9685% MPKI: 0.04912 Average ROB Occupancy at Mispredict: 155.203
Branch types
NOT_BRANCH: 21105622 84.4225%
BRANCH_DIRECT_JUMP: 568310 2.27324%
BRANCH_INDIRECT: 0 0%
BRANCH_CONDITIONAL: 2217333 8.86933%
BRANCH_DIRECT_CALL: 554334 2.21734%
BRANCH_INDIRECT_CALL: 0 0%
BRANCH_RETURN: 554333 2.21733%
BRANCH_OTHER: 0 0%

DRAM PAGES: 1048576
Allocated PAGES: 23115
