
*** ChampSim Multicore Out-of-Order Simulator ***

Warmup Instructions: 25000000
Simulation Instructions: 25000000
Number of CPUs: 1
LLC sets: 2048
LLC ways: 16
Off-chip DRAM Size: 4096 MB Channels: 1 Width: 64-bit Data Rate: 6400 MT/s
CPU 0 runs given/traces/trace1.champsimtrace.xz
.xz
CPU 0 Bimodal branch predictor
BTB has LRU replacement policy
ITLB has LRU replacement policy
DTLB has LRU replacement policy
CPU 0 STLB arbitrary stride prefetcher
STLB has LRU replacement policy
L1I has LRU replacement policy
L1D has LRU replacement policy
L2C has LRU replacement policy
LLC has LRU replacement policy
Heartbeat CPU 0 instructions: 10000003 cycles: 2825264 heartbeat IPC: 3.53949 cumulative IPC: 3.53949 (Simulation time: 0 hr 0 min 46 sec) 
Heartbeat CPU 0 instructions: 20000003 cycles: 5637514 heartbeat IPC: 3.55587 cumulative IPC: 3.54766 (Simulation time: 0 hr 1 min 32 sec) 

Warmup complete CPU 0 instructions: 25000004 cycles: 7049189 (Simulation time: 0 hr 1 min 54 sec) 

Heartbeat CPU 0 instructions: 30000002 cycles: 23740800 heartbeat IPC: 0.552386 cumulative IPC: 0.299552 (Simulation time: 0 hr 2 min 45 sec) 
Heartbeat CPU 0 instructions: 40000001 cycles: 59403108 heartbeat IPC: 0.280408 cumulative IPC: 0.286511 (Simulation time: 0 hr 4 min 30 sec) 
Retire attempted: 69095933 Failed due to ip: 7537 Failed due to non completion: 0 Retired instructions: 43067706
Heartbeat CPU 0 instructions: 50000003 cycles: 93869618 heartbeat IPC: 0.290137 cumulative IPC: 0.287951 (Simulation time: 0 hr 6 min 13 sec) 
Finished CPU 0 instructions: 25000003 cycles: 86820430 cumulative IPC: 0.287951 (Simulation time: 0 hr 6 min 13 sec) 

ChampSim completed all CPUs

Region of Interest Statistics

CPU 0 cumulative IPC: 0.287951 instructions: 25000003 cycles: 86820430
ITLB TOTAL     ACCESS:    4429393  HIT:    4429393  MISS:          0  HIT %:        100  MISS %:          0   MPKI: 0
ITLB LOAD TRANSLATION ACCESS:    4429393  HIT:    4429393  MISS:          0  HIT %:        100  MISS %:          0   MPKI: 0
ITLB PREFETCH  REQUESTED:          0  ISSUED:          0  USEFUL:          0  USELESS:          0
ITLB USEFUL LOAD PREFETCHES:          0 PREFETCH ISSUED TO LOWER LEVEL:          0  ACCURACY: -nan
ITLB TIMELY PREFETCHES:          0 LATE PREFETCHES: 0 DROPPED PREFETCHES: 0
ITLB PREFETCHES SAME FILL-ORIGIN LEVEL: 0 DIFFERENT FILL-ORIGIN LEVEL: 0
ITLB AVERAGE MISS LATENCY: -nan cycles
ITLB RQ	ACCESS:    4785180	FORWARD:          0	MERGED:     355788	TO_CACHE:    4429392

DTLB TOTAL     ACCESS:    3710879  HIT:    3047942  MISS:     662937  HIT %:    82.1353  MISS %:    17.8647   MPKI: 26.5175
DTLB LOAD TRANSLATION ACCESS:    3710879  HIT:    3047942  MISS:     662937  HIT %:    82.1353  MISS %:    17.8647   MPKI: 26.5175
DTLB PREFETCH  REQUESTED:          0  ISSUED:          0  USEFUL:          0  USELESS:          0
DTLB USEFUL LOAD PREFETCHES:          0 PREFETCH ISSUED TO LOWER LEVEL:          0  ACCURACY: -nan
DTLB TIMELY PREFETCHES:          0 LATE PREFETCHES: 0 DROPPED PREFETCHES: 0
DTLB PREFETCHES SAME FILL-ORIGIN LEVEL: 0 DIFFERENT FILL-ORIGIN LEVEL: 0
DTLB AVERAGE MISS LATENCY: 50.4884 cycles
DTLB RQ	ACCESS:    4310099	FORWARD:          0	MERGED:     590284	TO_CACHE:    3719815

STLB TOTAL     ACCESS:    1371090  HIT:     481575  MISS:     889515  HIT %:    35.1235  MISS %:    64.8765   MPKI: 35.5806
STLB LOAD TRANSLATION ACCESS:     662937  HIT:     106709  MISS:     556228  HIT %:    16.0964  MISS %:    83.9036   MPKI: 22.2491
STLB PREFETCH TRANSLATION ACCESS:     708153  HIT:     374866  MISS:     333287  HIT %:    52.9357  MISS %:    47.0643   MPKI: 13.3315
STLB PREFETCH  REQUESTED:     782984  ISSUED:     766675  USEFUL:       8302  USELESS:     325501
STLB USEFUL LOAD PREFETCHES:       8302 PREFETCH ISSUED TO LOWER LEVEL:     371970  ACCURACY: 2.2319
STLB TIMELY PREFETCHES:       8302 LATE PREFETCHES: 2022 DROPPED PREFETCHES: 36665
STLB PREFETCHES SAME FILL-ORIGIN LEVEL: 371970 DIFFERENT FILL-ORIGIN LEVEL: 0
STLB AVERAGE MISS LATENCY: 87.8203 cycles
STLB RQ	ACCESS:     662938	FORWARD:          0	MERGED:          0	TO_CACHE:     662938
STLB PQ	ACCESS:     766675	FORWARD:          0	MERGED:       6068	TO_CACHE:     760607

STLB Hit, L1D data hit: 0
STLB Hit, L2C data hit: 0
STLB Hit, LLC data hit: 0
STLB Hit, LLC data miss: 0
STLB STLB hints to L2: 0
L1D TOTAL     ACCESS:    4292338  HIT:    3087055  MISS:    1205283  HIT %:    71.9201  MISS %:    28.0799   MPKI: 48.2113
L1D LOAD      ACCESS:    3183674  HIT:    2047755  MISS:    1135919  HIT %:    64.3205  MISS %:    35.6795   MPKI: 45.4368
L1D RFO       ACCESS:    1108664  HIT:    1039300  MISS:      69364  HIT %:    93.7435  MISS %:    6.25654   MPKI: 2.77456
L1D PREFETCH  REQUESTED:          0  ISSUED:          0  USEFUL:          0  USELESS:          0
L1D USEFUL LOAD PREFETCHES:          0 PREFETCH ISSUED TO LOWER LEVEL:          0  ACCURACY: -nan
L1D TIMELY PREFETCHES:          0 LATE PREFETCHES: 0 DROPPED PREFETCHES: 0
L1D PREFETCHES SAME FILL-ORIGIN LEVEL: 0 DIFFERENT FILL-ORIGIN LEVEL: 0
L1D AVERAGE MISS LATENCY: 124.913 cycles
L1D RQ	ACCESS:    6164685	FORWARD:          0	MERGED:    2895577	TO_CACHE:    3201433
L1D WQ	ACCESS:    1108674	FORWARD:      67675	MERGED:          8	TO_CACHE:    1108666

L1D UNIQUE REGIONS ACCESSED: 0
L1D REGIONS CONFLICTS: 0
L1D Cross Page Prefetch Requests: 0
L1D Same Page Prefetch Requests: 0
L1D ROI Sum of L1D PQ occupancy: 0
L1D PREFETCHES PUSHED FROM L2C: 0
L1I TOTAL     ACCESS:    4785180  HIT:    4785180  MISS:          0  HIT %:        100  MISS %:          0   MPKI: 0
L1I LOAD      ACCESS:    4785180  HIT:    4785180  MISS:          0  HIT %:        100  MISS %:          0   MPKI: 0
L1I PREFETCH  REQUESTED:          0  ISSUED:          0  USEFUL:          0  USELESS:          0
L1I USEFUL LOAD PREFETCHES:          0 PREFETCH ISSUED TO LOWER LEVEL:          0  ACCURACY: -nan
L1I TIMELY PREFETCHES:          0 LATE PREFETCHES: 0 DROPPED PREFETCHES: 0
L1I PREFETCHES SAME FILL-ORIGIN LEVEL: 0 DIFFERENT FILL-ORIGIN LEVEL: 0
L1I AVERAGE MISS LATENCY: -nan cycles
L1I RQ	ACCESS:    7075244	FORWARD:          0	MERGED:    2290064	TO_CACHE:    4785180

BTB TOTAL     ACCESS:    3283963  HIT:    3283955  MISS:          8  HIT %:    99.9998  MISS %: 0.000243608   MPKI: 0.00032
BTB BRANCH_DIRECT_JUMP	ACCESS:     568310  HIT:     568308  MISS:          2
BTB BRANCH_INDIRECT	ACCESS:          0  HIT:          0  MISS:          0
BTB BRANCH_CONDITIONAL	ACCESS:    1606985  HIT:    1606981  MISS:          4
BTB BRANCH_DIRECT_CALL	ACCESS:     554334  HIT:     554333  MISS:          1
BTB BRANCH_INDIRECT_CALL	ACCESS:          0  HIT:          0  MISS:          0
BTB BRANCH_RETURN	ACCESS:     554334  HIT:     554333  MISS:          1
BTB BRANCH_OTHER ACCESS:          0  HIT:          0  MISS:          0

L2C TOTAL     ACCESS:    2788697  HIT:    1727256  MISS:    1061441  HIT %:    61.9377  MISS %:    38.0623   MPKI: 42.4576
L2C LOAD      ACCESS:    1135919  HIT:     409990  MISS:     725929  HIT %:    36.0932  MISS %:    63.9068   MPKI: 29.0372
L2C DATA LOAD MPKI: 29.0372
L2C INSTRUCTION LOAD MPKI: 0
L2C RFO       ACCESS:      69364  HIT:      38927  MISS:      30437  HIT %:    56.1199  MISS %:    43.8801   MPKI: 1.21748
L2C WRITEBACK ACCESS:     554349  HIT:     554349  MISS:          0  HIT %:        100  MISS %:          0   MPKI: 0
L2C LOAD TRANSLATION ACCESS:     602719  HIT:     408271  MISS:     194448  HIT %:    67.7382  MISS %:    32.2618   MPKI: 7.77792
L2C PREFETCH TRANSLATION ACCESS:     426346  HIT:     315719  MISS:     110627  HIT %:    74.0523  MISS %:    25.9477   MPKI: 4.42508
L2C PREFETCH  REQUESTED:          0  ISSUED:          0  USEFUL:      85175  USELESS:      25489
L2C USEFUL LOAD PREFETCHES:      85175 PREFETCH ISSUED TO LOWER LEVEL:          0  ACCURACY: inf
L2C TIMELY PREFETCHES:      85175 LATE PREFETCHES: 0 DROPPED PREFETCHES: 0
L2C PREFETCHES SAME FILL-ORIGIN LEVEL: 0 DIFFERENT FILL-ORIGIN LEVEL: 0
L2C AVERAGE MISS LATENCY: 135.174 cycles
L2C RQ	ACCESS:    2234350	FORWARD:          0	MERGED:          0	TO_CACHE:    2234350
L2C WQ	ACCESS:     554349	FORWARD:          0	MERGED:          0	TO_CACHE:     554349

L2C Instructions Evicting Data 0
L2C Translations Evicting Data 183243
L2C Data Evicting Data 572690
L2C Instructions Evicting Instructions 0
L2C Translations Evicting Instructions 0
L2C Data Evicting Instructions 0
L2C Instructions Evicting Translations 0
L2C Translations Evicting Translations 121832
L2C Data Evicting Translations 183676
L2C Dense regions hint from L2: 0
PSCL5 TOTAL     ACCESS:     926179  HIT:     926179  MISS:          0  HIT %:        100  MISS %:          0   MPKI: 0
PSCL5 LOAD TRANSLATION ACCESS:     554206  HIT:     554206  MISS:          0  HIT %:        100  MISS %:          0   MPKI: 0
PSCL5 PREFETCH TRANSLATION ACCESS:     371973  HIT:     371973  MISS:          0  HIT %:        100  MISS %:          0   MPKI: 0
PSCL5 PREFETCH  REQUESTED:          0  ISSUED:          0  USEFUL:          0  USELESS:          0
PSCL5 USEFUL LOAD PREFETCHES:          0 PREFETCH ISSUED TO LOWER LEVEL:          0  ACCURACY: -nan
PSCL5 TIMELY PREFETCHES:          0 LATE PREFETCHES: 0 DROPPED PREFETCHES: 0
PSCL5 PREFETCHES SAME FILL-ORIGIN LEVEL: 0 DIFFERENT FILL-ORIGIN LEVEL: 0

PSCL4 TOTAL     ACCESS:     926179  HIT:     926179  MISS:          0  HIT %:        100  MISS %:          0   MPKI: 0
PSCL4 LOAD TRANSLATION ACCESS:     554206  HIT:     554206  MISS:          0  HIT %:        100  MISS %:          0   MPKI: 0
PSCL4 PREFETCH TRANSLATION ACCESS:     371973  HIT:     371973  MISS:          0  HIT %:        100  MISS %:          0   MPKI: 0
PSCL4 PREFETCH  REQUESTED:          0  ISSUED:          0  USEFUL:          0  USELESS:          0
PSCL4 USEFUL LOAD PREFETCHES:          0 PREFETCH ISSUED TO LOWER LEVEL:          0  ACCURACY: -nan
PSCL4 TIMELY PREFETCHES:          0 LATE PREFETCHES: 0 DROPPED PREFETCHES: 0
PSCL4 PREFETCHES SAME FILL-ORIGIN LEVEL: 0 DIFFERENT FILL-ORIGIN LEVEL: 0

PSCL3 TOTAL     ACCESS:     924225  HIT:     924225  MISS:          0  HIT %:        100  MISS %:          0   MPKI: 0
PSCL3 LOAD TRANSLATION ACCESS:     554206  HIT:     554206  MISS:          0  HIT %:        100  MISS %:          0   MPKI: 0
PSCL3 PREFETCH TRANSLATION ACCESS:     370019  HIT:     370019  MISS:          0  HIT %:        100  MISS %:          0   MPKI: 0
PSCL3 PREFETCH  REQUESTED:          0  ISSUED:          0  USEFUL:          0  USELESS:          0
PSCL3 USEFUL LOAD PREFETCHES:          0 PREFETCH ISSUED TO LOWER LEVEL:          0  ACCURACY: -nan
PSCL3 TIMELY PREFETCHES:          0 LATE PREFETCHES: 0 DROPPED PREFETCHES: 0
PSCL3 PREFETCHES SAME FILL-ORIGIN LEVEL: 0 DIFFERENT FILL-ORIGIN LEVEL: 0

PSCL2 TOTAL     ACCESS:     895668  HIT:     818002  MISS:      77666  HIT %:    91.3287  MISS %:    8.67129   MPKI: 3.10664
PSCL2 LOAD TRANSLATION ACCESS:     583359  HIT:     505693  MISS:      77666  HIT %:    86.6864  MISS %:    13.3136   MPKI: 3.10664
PSCL2 PREFETCH TRANSLATION ACCESS:     312309  HIT:     312309  MISS:          0  HIT %:        100  MISS %:          0   MPKI: 0
PSCL2 PREFETCH  REQUESTED:          0  ISSUED:          0  USEFUL:          0  USELESS:          0
PSCL2 USEFUL LOAD PREFETCHES:          0 PREFETCH ISSUED TO LOWER LEVEL:          0  ACCURACY: -nan
PSCL2 TIMELY PREFETCHES:          0 LATE PREFETCHES: 0 DROPPED PREFETCHES: 0
PSCL2 PREFETCHES SAME FILL-ORIGIN LEVEL: 0 DIFFERENT FILL-ORIGIN LEVEL: 0

LLC TOTAL     ACCESS:    1615919  HIT:     962152  MISS:     653767  HIT %:    59.5421  MISS %:    40.4579   MPKI: 26.1507
LLC LOAD      ACCESS:     725929  HIT:      84409  MISS:     641520  HIT %:    11.6277  MISS %:    88.3723   MPKI: 25.6608
LLC RFO       ACCESS:      30437  HIT:      30433  MISS:          4  HIT %:    99.9869  MISS %:  0.0131419   MPKI: 0.00016
LLC WRITEBACK ACCESS:     554478  HIT:     554478  MISS:          0  HIT %:        100  MISS %:          0   MPKI: 0
LLC LOAD TRANSLATION ACCESS:     194448  HIT:     188773  MISS:       5675  HIT %:    97.0815  MISS %:    2.91852   MPKI: 0.227
LLC PREFETCH TRANSLATION ACCESS:     110627  HIT:     104059  MISS:       6568  HIT %:    94.0629  MISS %:    5.93707   MPKI: 0.26272
LLC PREFETCH  REQUESTED:          0  ISSUED:          0  USEFUL:       4909  USELESS:       1733
LLC USEFUL LOAD PREFETCHES:       4909 PREFETCH ISSUED TO LOWER LEVEL:          0  ACCURACY: inf
LLC TIMELY PREFETCHES:       4909 LATE PREFETCHES: 0 DROPPED PREFETCHES: 0
LLC PREFETCHES SAME FILL-ORIGIN LEVEL: 0 DIFFERENT FILL-ORIGIN LEVEL: 0
LLC AVERAGE MISS LATENCY: 170.561 cycles
LLC RQ	ACCESS:    1061442	FORWARD:          0	MERGED:          0	TO_CACHE:    1061442
LLC WQ	ACCESS:     554478	FORWARD:          0	MERGED:          0	TO_CACHE:     554478

LLC Dense regions hint to LLC: 0

RAW hits: 485848
Loads Generated: 6650538
Loads sent to L1D: 6164685
Stores Generated: 1108672
Stores sent to L1D: 1108674
Major fault: 0 Minor fault: 23116
Allocated PAGES: 23116
CPU 0 STLB arbitrary stride prefetcher final stats
Degree: 8

DRAM Statistics
 CHANNEL 0
 RQ ROW_BUFFER_HIT:        874  ROW_BUFFER_MISS:     652893
 DBUS_CONGESTED:          6
 WQ ROW_BUFFER_HIT:     210849  ROW_BUFFER_MISS:     343354  FULL:          0

 AVG_CONGESTED_CYCLE: 4
 All warmup complete: 2
Channel 0 Bank busy for read cycles: 0
Channel 0 Bank busy for write cycles: 0
Channel 0
Rank 0
0banks busy for read cycles: 2499241
0banks busy for write cycles: 58364
1banks busy for read cycles: 19756497
1banks busy for write cycles: 4488967
2banks busy for read cycles: 13899891
2banks busy for write cycles: 6733718
3banks busy for read cycles: 11651276
3banks busy for write cycles: 9781614
4banks busy for read cycles: 3811846
4banks busy for write cycles: 8205506
5banks busy for read cycles: 43649
5banks busy for write cycles: 3294821
6banks busy for read cycles: 383
6banks busy for write cycles: 1354949
7banks busy for read cycles: 0
7banks busy for write cycles: 677127
8banks busy for read cycles: 0
8banks busy for write cycles: 562582

CPU 0 Branch Prediction Accuracy: 99.9685% MPKI: 0.04912 Average ROB Occupancy at Mispredict: 155.537
Branch types
NOT_BRANCH: 21105636 84.4225%
BRANCH_DIRECT_JUMP: 568310 2.27324%
BRANCH_INDIRECT: 0 0%
BRANCH_CONDITIONAL: 2217336 8.86934%
BRANCH_DIRECT_CALL: 554334 2.21734%
BRANCH_INDIRECT_CALL: 0 0%
BRANCH_RETURN: 554334 2.21734%
BRANCH_OTHER: 0 0%

DRAM PAGES: 1048576
Allocated PAGES: 23116
