
*** ChampSim Multicore Out-of-Order Simulator ***

Warmup Instructions: 25000000
Simulation Instructions: 25000000
Number of CPUs: 1
LLC sets: 2048
LLC ways: 16
Off-chip DRAM Size: 4096 MB Channels: 1 Width: 64-bit Data Rate: 6400 MT/s
CPU 0 runs given/traces/trace1.champsimtrace.xz
.xz
CPU 0 Bimodal branch predictor
BTB has LRU replacement policy
ITLB has LRU replacement policy
DTLB has LRU replacement policy
CPU 0 STLB arbitrary stride prefetcher
STLB has LRU replacement policy
L1I has LRU replacement policy
L1D has LRU replacement policy
L2C has LRU replacement policy
LLC has LRU replacement policy
Heartbeat CPU 0 instructions: 10000003 cycles: 2822568 heartbeat IPC: 3.54287 cumulative IPC: 3.54287 (Simulation time: 0 hr 0 min 44 sec) 
Heartbeat CPU 0 instructions: 20000003 cycles: 5635222 heartbeat IPC: 3.55536 cumulative IPC: 3.54911 (Simulation time: 0 hr 1 min 29 sec) 

Warmup complete CPU 0 instructions: 25000004 cycles: 7046658 (Simulation time: 0 hr 1 min 50 sec) 

Heartbeat CPU 0 instructions: 30000002 cycles: 23976288 heartbeat IPC: 0.545225 cumulative IPC: 0.29534 (Simulation time: 0 hr 2 min 41 sec) 
Heartbeat CPU 0 instructions: 40000001 cycles: 60259156 heartbeat IPC: 0.275612 cumulative IPC: 0.281889 (Simulation time: 0 hr 4 min 25 sec) 
Retire attempted: 69110486 Failed due to ip: 7376 Failed due to non completion: 0 Retired instructions: 42769086
Heartbeat CPU 0 instructions: 50000000 cycles: 95362634 heartbeat IPC: 0.284872 cumulative IPC: 0.283074 (Simulation time: 0 hr 6 min 7 sec) 
Finished CPU 0 instructions: 25000000 cycles: 88315977 cumulative IPC: 0.283074 (Simulation time: 0 hr 6 min 7 sec) 

ChampSim completed all CPUs

Region of Interest Statistics

CPU 0 cumulative IPC: 0.283074 instructions: 25000000 cycles: 88315977
ITLB TOTAL     ACCESS:    4439351  HIT:    4439351  MISS:          0  HIT %:        100  MISS %:          0   MPKI: 0
ITLB LOAD TRANSLATION ACCESS:    4439351  HIT:    4439351  MISS:          0  HIT %:        100  MISS %:          0   MPKI: 0
ITLB PREFETCH  REQUESTED:          0  ISSUED:          0  USEFUL:          0  USELESS:          0
ITLB USEFUL LOAD PREFETCHES:          0 PREFETCH ISSUED TO LOWER LEVEL:          0  ACCURACY: -nan
ITLB TIMELY PREFETCHES:          0 LATE PREFETCHES: 0 DROPPED PREFETCHES: 0
ITLB PREFETCHES SAME FILL-ORIGIN LEVEL: 0 DIFFERENT FILL-ORIGIN LEVEL: 0
ITLB AVERAGE MISS LATENCY: -nan cycles
ITLB RQ	ACCESS:    4792517	FORWARD:          0	MERGED:     353167	TO_CACHE:    4439350

DTLB TOTAL     ACCESS:    3716538  HIT:    3053633  MISS:     662905  HIT %:    82.1634  MISS %:    17.8366   MPKI: 26.5162
DTLB LOAD TRANSLATION ACCESS:    3716538  HIT:    3053633  MISS:     662905  HIT %:    82.1634  MISS %:    17.8366   MPKI: 26.5162
DTLB PREFETCH  REQUESTED:          0  ISSUED:          0  USEFUL:          0  USELESS:          0
DTLB USEFUL LOAD PREFETCHES:          0 PREFETCH ISSUED TO LOWER LEVEL:          0  ACCURACY: -nan
DTLB TIMELY PREFETCHES:          0 LATE PREFETCHES: 0 DROPPED PREFETCHES: 0
DTLB PREFETCHES SAME FILL-ORIGIN LEVEL: 0 DIFFERENT FILL-ORIGIN LEVEL: 0
DTLB AVERAGE MISS LATENCY: 53.2931 cycles
DTLB RQ	ACCESS:    4316001	FORWARD:          0	MERGED:     591577	TO_CACHE:    3724424

STLB TOTAL     ACCESS:     830558  HIT:     200528  MISS:     630030  HIT %:    24.1438  MISS %:    75.8562   MPKI: 25.2012
STLB LOAD TRANSLATION ACCESS:     662905  HIT:     105696  MISS:     557209  HIT %:    15.9444  MISS %:    84.0556   MPKI: 22.2884
STLB PREFETCH TRANSLATION ACCESS:     167653  HIT:      94832  MISS:      72821  HIT %:    56.5645  MISS %:    43.4355   MPKI: 2.91284
STLB PREFETCH  REQUESTED:     176644  ISSUED:     176644  USEFUL:       5166  USELESS:      68037
STLB USEFUL LOAD PREFETCHES:       5166 PREFETCH ISSUED TO LOWER LEVEL:      78047  ACCURACY: 6.61909
STLB TIMELY PREFETCHES:       5166 LATE PREFETCHES: 1134 DROPPED PREFETCHES: 4092
STLB PREFETCHES SAME FILL-ORIGIN LEVEL: 78047 DIFFERENT FILL-ORIGIN LEVEL: 0
STLB AVERAGE MISS LATENCY: 57.5531 cycles
STLB RQ	ACCESS:     662906	FORWARD:          0	MERGED:          0	TO_CACHE:     662906
STLB PQ	ACCESS:     176644	FORWARD:          0	MERGED:       1305	TO_CACHE:     175339

STLB Hit, L1D data hit: 0
STLB Hit, L2C data hit: 0
STLB Hit, LLC data hit: 0
STLB Hit, LLC data miss: 0
STLB STLB hints to L2: 0
L1D TOTAL     ACCESS:    4296195  HIT:    3090933  MISS:    1205262  HIT %:    71.9458  MISS %:    28.0542   MPKI: 48.2105
L1D LOAD      ACCESS:    3187531  HIT:    2051633  MISS:    1135898  HIT %:    64.3643  MISS %:    35.6357   MPKI: 45.4359
L1D RFO       ACCESS:    1108664  HIT:    1039300  MISS:      69364  HIT %:    93.7435  MISS %:    6.25654   MPKI: 2.77456
L1D PREFETCH  REQUESTED:          0  ISSUED:          0  USEFUL:          0  USELESS:          0
L1D USEFUL LOAD PREFETCHES:          0 PREFETCH ISSUED TO LOWER LEVEL:          0  ACCURACY: -nan
L1D TIMELY PREFETCHES:          0 LATE PREFETCHES: 0 DROPPED PREFETCHES: 0
L1D PREFETCHES SAME FILL-ORIGIN LEVEL: 0 DIFFERENT FILL-ORIGIN LEVEL: 0
L1D AVERAGE MISS LATENCY: 124.688 cycles
L1D RQ	ACCESS:    6161879	FORWARD:          0	MERGED:    2889673	TO_CACHE:    3207335
L1D WQ	ACCESS:    1108674	FORWARD:      64871	MERGED:          8	TO_CACHE:    1108666

L1D UNIQUE REGIONS ACCESSED: 0
L1D REGIONS CONFLICTS: 0
L1D Cross Page Prefetch Requests: 0
L1D Same Page Prefetch Requests: 0
L1D ROI Sum of L1D PQ occupancy: 0
L1D PREFETCHES PUSHED FROM L2C: 0
L1I TOTAL     ACCESS:    4792518  HIT:    4792518  MISS:          0  HIT %:        100  MISS %:          0   MPKI: 0
L1I LOAD      ACCESS:    4792518  HIT:    4792518  MISS:          0  HIT %:        100  MISS %:          0   MPKI: 0
L1I PREFETCH  REQUESTED:          0  ISSUED:          0  USEFUL:          0  USELESS:          0
L1I USEFUL LOAD PREFETCHES:          0 PREFETCH ISSUED TO LOWER LEVEL:          0  ACCURACY: -nan
L1I TIMELY PREFETCHES:          0 LATE PREFETCHES: 0 DROPPED PREFETCHES: 0
L1I PREFETCHES SAME FILL-ORIGIN LEVEL: 0 DIFFERENT FILL-ORIGIN LEVEL: 0
L1I AVERAGE MISS LATENCY: -nan cycles
L1I RQ	ACCESS:    7101182	FORWARD:          0	MERGED:    2308665	TO_CACHE:    4792517

BTB TOTAL     ACCESS:    3283960  HIT:    3283952  MISS:          8  HIT %:    99.9998  MISS %: 0.000243608   MPKI: 0.00032
BTB BRANCH_DIRECT_JUMP	ACCESS:     568310  HIT:     568308  MISS:          2
BTB BRANCH_INDIRECT	ACCESS:          0  HIT:          0  MISS:          0
BTB BRANCH_CONDITIONAL	ACCESS:    1606983  HIT:    1606979  MISS:          4
BTB BRANCH_DIRECT_CALL	ACCESS:     554334  HIT:     554333  MISS:          1
BTB BRANCH_INDIRECT_CALL	ACCESS:          0  HIT:          0  MISS:          0
BTB BRANCH_RETURN	ACCESS:     554333  HIT:     554332  MISS:          1
BTB BRANCH_OTHER ACCESS:          0  HIT:          0  MISS:          0

L2C TOTAL     ACCESS:    2473757  HIT:    1474599  MISS:     999158  HIT %:    59.6097  MISS %:    40.3903   MPKI: 39.9663
L2C LOAD      ACCESS:    1135897  HIT:     416539  MISS:     719358  HIT %:    36.6705  MISS %:    63.3295   MPKI: 28.7743
L2C DATA LOAD MPKI: 28.7743
L2C INSTRUCTION LOAD MPKI: 0
L2C RFO       ACCESS:      69364  HIT:      41798  MISS:      27566  HIT %:    60.2589  MISS %:    39.7411   MPKI: 1.10264
L2C WRITEBACK ACCESS:     554350  HIT:     554350  MISS:          0  HIT %:        100  MISS %:          0   MPKI: 0
L2C LOAD TRANSLATION ACCESS:     625752  HIT:     395716  MISS:     230036  HIT %:    63.2385  MISS %:    36.7615   MPKI: 9.20144
L2C PREFETCH TRANSLATION ACCESS:      88394  HIT:      66196  MISS:      22198  HIT %:    74.8874  MISS %:    25.1126   MPKI: 0.88792
L2C PREFETCH  REQUESTED:          0  ISSUED:          0  USEFUL:      15849  USELESS:       6488
L2C USEFUL LOAD PREFETCHES:      15849 PREFETCH ISSUED TO LOWER LEVEL:          0  ACCURACY: inf
L2C TIMELY PREFETCHES:      15849 LATE PREFETCHES: 0 DROPPED PREFETCHES: 0
L2C PREFETCHES SAME FILL-ORIGIN LEVEL: 0 DIFFERENT FILL-ORIGIN LEVEL: 0
L2C AVERAGE MISS LATENCY: 141.328 cycles
L2C RQ	ACCESS:    1919409	FORWARD:          0	MERGED:          0	TO_CACHE:    1919409
L2C WQ	ACCESS:     554350	FORWARD:          0	MERGED:          0	TO_CACHE:     554350

L2C Instructions Evicting Data 0
L2C Translations Evicting Data 150444
L2C Data Evicting Data 596302
L2C Instructions Evicting Instructions 0
L2C Translations Evicting Instructions 0
L2C Data Evicting Instructions 0
L2C Instructions Evicting Translations 0
L2C Translations Evicting Translations 101790
L2C Data Evicting Translations 150622
L2C Dense regions hint from L2: 0
PSCL5 TOTAL     ACCESS:     634122  HIT:     634122  MISS:          0  HIT %:        100  MISS %:          0   MPKI: 0
PSCL5 LOAD TRANSLATION ACCESS:     556075  HIT:     556075  MISS:          0  HIT %:        100  MISS %:          0   MPKI: 0
PSCL5 PREFETCH TRANSLATION ACCESS:      78047  HIT:      78047  MISS:          0  HIT %:        100  MISS %:          0   MPKI: 0
PSCL5 PREFETCH  REQUESTED:          0  ISSUED:          0  USEFUL:          0  USELESS:          0
PSCL5 USEFUL LOAD PREFETCHES:          0 PREFETCH ISSUED TO LOWER LEVEL:          0  ACCURACY: -nan
PSCL5 TIMELY PREFETCHES:          0 LATE PREFETCHES: 0 DROPPED PREFETCHES: 0
PSCL5 PREFETCHES SAME FILL-ORIGIN LEVEL: 0 DIFFERENT FILL-ORIGIN LEVEL: 0

PSCL4 TOTAL     ACCESS:     634122  HIT:     634122  MISS:          0  HIT %:        100  MISS %:          0   MPKI: 0
PSCL4 LOAD TRANSLATION ACCESS:     556075  HIT:     556075  MISS:          0  HIT %:        100  MISS %:          0   MPKI: 0
PSCL4 PREFETCH TRANSLATION ACCESS:      78047  HIT:      78047  MISS:          0  HIT %:        100  MISS %:          0   MPKI: 0
PSCL4 PREFETCH  REQUESTED:          0  ISSUED:          0  USEFUL:          0  USELESS:          0
PSCL4 USEFUL LOAD PREFETCHES:          0 PREFETCH ISSUED TO LOWER LEVEL:          0  ACCURACY: -nan
PSCL4 TIMELY PREFETCHES:          0 LATE PREFETCHES: 0 DROPPED PREFETCHES: 0
PSCL4 PREFETCHES SAME FILL-ORIGIN LEVEL: 0 DIFFERENT FILL-ORIGIN LEVEL: 0

PSCL3 TOTAL     ACCESS:     634122  HIT:     634122  MISS:          0  HIT %:        100  MISS %:          0   MPKI: 0
PSCL3 LOAD TRANSLATION ACCESS:     556075  HIT:     556075  MISS:          0  HIT %:        100  MISS %:          0   MPKI: 0
PSCL3 PREFETCH TRANSLATION ACCESS:      78047  HIT:      78047  MISS:          0  HIT %:        100  MISS %:          0   MPKI: 0
PSCL3 PREFETCH  REQUESTED:          0  ISSUED:          0  USEFUL:          0  USELESS:          0
PSCL3 USEFUL LOAD PREFETCHES:          0 PREFETCH ISSUED TO LOWER LEVEL:          0  ACCURACY: -nan
PSCL3 TIMELY PREFETCHES:          0 LATE PREFETCHES: 0 DROPPED PREFETCHES: 0
PSCL3 PREFETCHES SAME FILL-ORIGIN LEVEL: 0 DIFFERENT FILL-ORIGIN LEVEL: 0

PSCL2 TOTAL     ACCESS:     630864  HIT:     553508  MISS:      77356  HIT %:    87.7381  MISS %:    12.2619   MPKI: 3.09424
PSCL2 LOAD TRANSLATION ACCESS:     563754  HIT:     486398  MISS:      77356  HIT %:    86.2784  MISS %:    13.7216   MPKI: 3.09424
PSCL2 PREFETCH TRANSLATION ACCESS:      67110  HIT:      67110  MISS:          0  HIT %:        100  MISS %:          0   MPKI: 0
PSCL2 PREFETCH  REQUESTED:          0  ISSUED:          0  USEFUL:          0  USELESS:          0
PSCL2 USEFUL LOAD PREFETCHES:          0 PREFETCH ISSUED TO LOWER LEVEL:          0  ACCURACY: -nan
PSCL2 TIMELY PREFETCHES:          0 LATE PREFETCHES: 0 DROPPED PREFETCHES: 0
PSCL2 PREFETCHES SAME FILL-ORIGIN LEVEL: 0 DIFFERENT FILL-ORIGIN LEVEL: 0

LLC TOTAL     ACCESS:    1553846  HIT:     902341  MISS:     651505  HIT %:    58.0715  MISS %:    41.9285   MPKI: 26.0602
LLC LOAD      ACCESS:     719358  HIT:      77882  MISS:     641476  HIT %:    10.8266  MISS %:    89.1734   MPKI: 25.659
LLC RFO       ACCESS:      27566  HIT:      27562  MISS:          4  HIT %:    99.9855  MISS %:  0.0145106   MPKI: 0.00016
LLC WRITEBACK ACCESS:     554688  HIT:     554688  MISS:          0  HIT %:        100  MISS %:          0   MPKI: 0
LLC LOAD TRANSLATION ACCESS:     230036  HIT:     222422  MISS:       7614  HIT %:    96.6901  MISS %:    3.30992   MPKI: 0.30456
LLC PREFETCH TRANSLATION ACCESS:      22198  HIT:      19787  MISS:       2411  HIT %:    89.1387  MISS %:    10.8613   MPKI: 0.09644
LLC PREFETCH  REQUESTED:          0  ISSUED:          0  USEFUL:       1666  USELESS:        828
LLC USEFUL LOAD PREFETCHES:       1666 PREFETCH ISSUED TO LOWER LEVEL:          0  ACCURACY: inf
LLC TIMELY PREFETCHES:       1666 LATE PREFETCHES: 0 DROPPED PREFETCHES: 0
LLC PREFETCHES SAME FILL-ORIGIN LEVEL: 0 DIFFERENT FILL-ORIGIN LEVEL: 0
LLC AVERAGE MISS LATENCY: 170.545 cycles
LLC RQ	ACCESS:     999159	FORWARD:          0	MERGED:          0	TO_CACHE:     999159
LLC WQ	ACCESS:     554687	FORWARD:          0	MERGED:          0	TO_CACHE:     554687

LLC Dense regions hint to LLC: 0

RAW hits: 488651
Loads Generated: 6650534
Loads sent to L1D: 6161879
Stores Generated: 1108672
Stores sent to L1D: 1108674
Major fault: 0 Minor fault: 23115
Allocated PAGES: 23115
CPU 0 STLB arbitrary stride prefetcher final stats
Degree: 2

DRAM Statistics
 CHANNEL 0
 RQ ROW_BUFFER_HIT:        769  ROW_BUFFER_MISS:     650736
 DBUS_CONGESTED:          5
 WQ ROW_BUFFER_HIT:     205207  ROW_BUFFER_MISS:     349120  FULL:          0

 AVG_CONGESTED_CYCLE: 5
 All warmup complete: 2
Channel 0 Bank busy for read cycles: 0
Channel 0 Bank busy for write cycles: 0
Channel 0
Rank 0
0banks busy for read cycles: 2754283
0banks busy for write cycles: 62712
1banks busy for read cycles: 20729489
1banks busy for write cycles: 4873262
2banks busy for read cycles: 14338433
2banks busy for write cycles: 6973222
3banks busy for read cycles: 11247799
3banks busy for write cycles: 10077927
4banks busy for read cycles: 3578650
4banks busy for write cycles: 8249232
5banks busy for read cycles: 36834
5banks busy for write cycles: 3105968
6banks busy for read cycles: 102
6banks busy for write cycles: 1209233
7banks busy for read cycles: 0
7banks busy for write cycles: 589515
8banks busy for read cycles: 0
8banks busy for write cycles: 489317

CPU 0 Branch Prediction Accuracy: 99.9685% MPKI: 0.04912 Average ROB Occupancy at Mispredict: 155.896
Branch types
NOT_BRANCH: 21105622 84.4225%
BRANCH_DIRECT_JUMP: 568310 2.27324%
BRANCH_INDIRECT: 0 0%
BRANCH_CONDITIONAL: 2217333 8.86933%
BRANCH_DIRECT_CALL: 554334 2.21734%
BRANCH_INDIRECT_CALL: 0 0%
BRANCH_RETURN: 554333 2.21733%
BRANCH_OTHER: 0 0%

DRAM PAGES: 1048576
Allocated PAGES: 23115
