
*** ChampSim Multicore Out-of-Order Simulator ***

Warmup Instructions: 25000000
Simulation Instructions: 25000000
Number of CPUs: 1
LLC sets: 2048
LLC ways: 16
Off-chip DRAM Size: 4096 MB Channels: 1 Width: 64-bit Data Rate: 6400 MT/s
CPU 0 runs given/traces/trace1.champsimtrace.xz
.xz
CPU 0 Bimodal branch predictor
BTB has LRU replacement policy
ITLB has LRU replacement policy
DTLB has LRU replacement policy
CPU 0 STLB arbitrary stride prefetcher
STLB has LRU replacement policy
L1I has LRU replacement policy
L1D has LRU replacement policy
L2C has LRU replacement policy
LLC has LRU replacement policy
Heartbeat CPU 0 instructions: 10000003 cycles: 2821088 heartbeat IPC: 3.54473 cumulative IPC: 3.54473 (Simulation time: 0 hr 0 min 45 sec) 
Heartbeat CPU 0 instructions: 20000003 cycles: 5631059 heartbeat IPC: 3.55876 cumulative IPC: 3.55173 (Simulation time: 0 hr 1 min 30 sec) 

Warmup complete CPU 0 instructions: 25000004 cycles: 7041501 (Simulation time: 0 hr 1 min 54 sec) 

Heartbeat CPU 0 instructions: 30000002 cycles: 23850209 heartbeat IPC: 0.548873 cumulative IPC: 0.297465 (Simulation time: 0 hr 2 min 47 sec) 
Heartbeat CPU 0 instructions: 40000001 cycles: 59842959 heartbeat IPC: 0.277834 cumulative IPC: 0.284083 (Simulation time: 0 hr 4 min 35 sec) 
Retire attempted: 69103289 Failed due to ip: 7433 Failed due to non completion: 0 Retired instructions: 42915253
Heartbeat CPU 0 instructions: 50000000 cycles: 94645631 heartbeat IPC: 0.287334 cumulative IPC: 0.285375 (Simulation time: 0 hr 6 min 20 sec) 
Finished CPU 0 instructions: 25000000 cycles: 87604132 cumulative IPC: 0.285375 (Simulation time: 0 hr 6 min 20 sec) 

ChampSim completed all CPUs

Region of Interest Statistics

CPU 0 cumulative IPC: 0.285375 instructions: 25000000 cycles: 87604132
ITLB TOTAL     ACCESS:    4436315  HIT:    4436315  MISS:          0  HIT %:        100  MISS %:          0   MPKI: 0
ITLB LOAD TRANSLATION ACCESS:    4436315  HIT:    4436315  MISS:          0  HIT %:        100  MISS %:          0   MPKI: 0
ITLB PREFETCH  REQUESTED:          0  ISSUED:          0  USEFUL:          0  USELESS:          0
ITLB USEFUL LOAD PREFETCHES:          0 PREFETCH ISSUED TO LOWER LEVEL:          0  ACCURACY: -nan
ITLB TIMELY PREFETCHES:          0 LATE PREFETCHES: 0 DROPPED PREFETCHES: 0
ITLB PREFETCHES SAME FILL-ORIGIN LEVEL: 0 DIFFERENT FILL-ORIGIN LEVEL: 0
ITLB AVERAGE MISS LATENCY: -nan cycles
ITLB RQ	ACCESS:    4790148	FORWARD:          0	MERGED:     353833	TO_CACHE:    4436315

DTLB TOTAL     ACCESS:    3713564  HIT:    3050639  MISS:     662925  HIT %:    82.1486  MISS %:    17.8514   MPKI: 26.517
DTLB LOAD TRANSLATION ACCESS:    3713564  HIT:    3050639  MISS:     662925  HIT %:    82.1486  MISS %:    17.8514   MPKI: 26.517
DTLB PREFETCH  REQUESTED:          0  ISSUED:          0  USEFUL:          0  USELESS:          0
DTLB USEFUL LOAD PREFETCHES:          0 PREFETCH ISSUED TO LOWER LEVEL:          0  ACCURACY: -nan
DTLB TIMELY PREFETCHES:          0 LATE PREFETCHES: 0 DROPPED PREFETCHES: 0
DTLB PREFETCHES SAME FILL-ORIGIN LEVEL: 0 DIFFERENT FILL-ORIGIN LEVEL: 0
DTLB AVERAGE MISS LATENCY: 51.7006 cycles
DTLB RQ	ACCESS:    4312948	FORWARD:          0	MERGED:     590933	TO_CACHE:    3722015

STLB TOTAL     ACCESS:    1009624  HIT:     297888  MISS:     711736  HIT %:    29.5048  MISS %:    70.4952   MPKI: 28.4694
STLB LOAD TRANSLATION ACCESS:     662925  HIT:     106536  MISS:     556389  HIT %:    16.0706  MISS %:    83.9294   MPKI: 22.2556
STLB PREFETCH TRANSLATION ACCESS:     346699  HIT:     191352  MISS:     155347  HIT %:    55.1925  MISS %:    44.8075   MPKI: 6.21388
STLB PREFETCH  REQUESTED:     373040  ISSUED:     373040  USEFUL:       6369  USELESS:     149516
STLB USEFUL LOAD PREFETCHES:       6369 PREFETCH ISSUED TO LOWER LEVEL:     169715  ACCURACY: 3.75276
STLB TIMELY PREFETCHES:       6369 LATE PREFETCHES: 1668 DROPPED PREFETCHES: 12700
STLB PREFETCHES SAME FILL-ORIGIN LEVEL: 169715 DIFFERENT FILL-ORIGIN LEVEL: 0
STLB AVERAGE MISS LATENCY: 64.5085 cycles
STLB RQ	ACCESS:     662928	FORWARD:          0	MERGED:          0	TO_CACHE:     662928
STLB PQ	ACCESS:     373040	FORWARD:          0	MERGED:       5135	TO_CACHE:     367905

STLB Hit, L1D data hit: 0
STLB Hit, L2C data hit: 0
STLB Hit, LLC data hit: 0
STLB Hit, LLC data miss: 0
STLB STLB hints to L2: 0
L1D TOTAL     ACCESS:    4294176  HIT:    3088928  MISS:    1205248  HIT %:     71.933  MISS %:     28.067   MPKI: 48.2099
L1D LOAD      ACCESS:    3185512  HIT:    2049628  MISS:    1135884  HIT %:    64.3422  MISS %:    35.6578   MPKI: 45.4354
L1D RFO       ACCESS:    1108664  HIT:    1039300  MISS:      69364  HIT %:    93.7435  MISS %:    6.25654   MPKI: 2.77456
L1D PREFETCH  REQUESTED:          0  ISSUED:          0  USEFUL:          0  USELESS:          0
L1D USEFUL LOAD PREFETCHES:          0 PREFETCH ISSUED TO LOWER LEVEL:          0  ACCURACY: -nan
L1D TIMELY PREFETCHES:          0 LATE PREFETCHES: 0 DROPPED PREFETCHES: 0
L1D PREFETCHES SAME FILL-ORIGIN LEVEL: 0 DIFFERENT FILL-ORIGIN LEVEL: 0
L1D AVERAGE MISS LATENCY: 124.739 cycles
L1D RQ	ACCESS:    6163298	FORWARD:          0	MERGED:    2892725	TO_CACHE:    3204282
L1D WQ	ACCESS:    1108674	FORWARD:      66291	MERGED:          8	TO_CACHE:    1108666

L1D UNIQUE REGIONS ACCESSED: 0
L1D REGIONS CONFLICTS: 0
L1D Cross Page Prefetch Requests: 0
L1D Same Page Prefetch Requests: 0
L1D ROI Sum of L1D PQ occupancy: 0
L1D PREFETCHES PUSHED FROM L2C: 0
L1I TOTAL     ACCESS:    4790146  HIT:    4790146  MISS:          0  HIT %:        100  MISS %:          0   MPKI: 0
L1I LOAD      ACCESS:    4790146  HIT:    4790146  MISS:          0  HIT %:        100  MISS %:          0   MPKI: 0
L1I PREFETCH  REQUESTED:          0  ISSUED:          0  USEFUL:          0  USELESS:          0
L1I USEFUL LOAD PREFETCHES:          0 PREFETCH ISSUED TO LOWER LEVEL:          0  ACCURACY: -nan
L1I TIMELY PREFETCHES:          0 LATE PREFETCHES: 0 DROPPED PREFETCHES: 0
L1I PREFETCHES SAME FILL-ORIGIN LEVEL: 0 DIFFERENT FILL-ORIGIN LEVEL: 0
L1I AVERAGE MISS LATENCY: -nan cycles
L1I RQ	ACCESS:    7091340	FORWARD:          0	MERGED:    2301192	TO_CACHE:    4790148

BTB TOTAL     ACCESS:    3283965  HIT:    3283957  MISS:          8  HIT %:    99.9998  MISS %: 0.000243608   MPKI: 0.00032
BTB BRANCH_DIRECT_JUMP	ACCESS:     568311  HIT:     568309  MISS:          2
BTB BRANCH_INDIRECT	ACCESS:          0  HIT:          0  MISS:          0
BTB BRANCH_CONDITIONAL	ACCESS:    1606986  HIT:    1606982  MISS:          4
BTB BRANCH_DIRECT_CALL	ACCESS:     554334  HIT:     554333  MISS:          1
BTB BRANCH_INDIRECT_CALL	ACCESS:          0  HIT:          0  MISS:          0
BTB BRANCH_RETURN	ACCESS:     554334  HIT:     554333  MISS:          1
BTB BRANCH_OTHER ACCESS:          0  HIT:          0  MISS:          0

L2C TOTAL     ACCESS:    2569768  HIT:    1555321  MISS:    1014447  HIT %:    60.5238  MISS %:    39.4762   MPKI: 40.5779
L2C LOAD      ACCESS:    1135884  HIT:     414629  MISS:     721255  HIT %:    36.5028  MISS %:    63.4972   MPKI: 28.8502
L2C DATA LOAD MPKI: 28.8502
L2C INSTRUCTION LOAD MPKI: 0
L2C RFO       ACCESS:      69364  HIT:      41086  MISS:      28278  HIT %:    59.2325  MISS %:    40.7675   MPKI: 1.13112
L2C WRITEBACK ACCESS:     554349  HIT:     554349  MISS:          0  HIT %:        100  MISS %:          0   MPKI: 0
L2C LOAD TRANSLATION ACCESS:     615423  HIT:     403681  MISS:     211742  HIT %:    65.5941  MISS %:    34.4059   MPKI: 8.46968
L2C PREFETCH TRANSLATION ACCESS:     194748  HIT:     141576  MISS:      53172  HIT %:     72.697  MISS %:     27.303   MPKI: 2.12688
L2C PREFETCH  REQUESTED:          0  ISSUED:          0  USEFUL:      40598  USELESS:      12641
L2C USEFUL LOAD PREFETCHES:      40598 PREFETCH ISSUED TO LOWER LEVEL:          0  ACCURACY: inf
L2C TIMELY PREFETCHES:      40598 LATE PREFETCHES: 0 DROPPED PREFETCHES: 0
L2C PREFETCHES SAME FILL-ORIGIN LEVEL: 0 DIFFERENT FILL-ORIGIN LEVEL: 0
L2C AVERAGE MISS LATENCY: 139.923 cycles
L2C RQ	ACCESS:    2015420	FORWARD:          0	MERGED:          0	TO_CACHE:    2015420
L2C WQ	ACCESS:     554349	FORWARD:          0	MERGED:          0	TO_CACHE:     554349

L2C Instructions Evicting Data 0
L2C Translations Evicting Data 159419
L2C Data Evicting Data 589839
L2C Instructions Evicting Instructions 0
L2C Translations Evicting Instructions 0
L2C Data Evicting Instructions 0
L2C Instructions Evicting Translations 0
L2C Translations Evicting Translations 105495
L2C Data Evicting Translations 159694
L2C Dense regions hint from L2: 0
PSCL5 TOTAL     ACCESS:     724437  HIT:     724437  MISS:          0  HIT %:        100  MISS %:          0   MPKI: 0
PSCL5 LOAD TRANSLATION ACCESS:     554722  HIT:     554722  MISS:          0  HIT %:        100  MISS %:          0   MPKI: 0
PSCL5 PREFETCH TRANSLATION ACCESS:     169715  HIT:     169715  MISS:          0  HIT %:        100  MISS %:          0   MPKI: 0
PSCL5 PREFETCH  REQUESTED:          0  ISSUED:          0  USEFUL:          0  USELESS:          0
PSCL5 USEFUL LOAD PREFETCHES:          0 PREFETCH ISSUED TO LOWER LEVEL:          0  ACCURACY: -nan
PSCL5 TIMELY PREFETCHES:          0 LATE PREFETCHES: 0 DROPPED PREFETCHES: 0
PSCL5 PREFETCHES SAME FILL-ORIGIN LEVEL: 0 DIFFERENT FILL-ORIGIN LEVEL: 0

PSCL4 TOTAL     ACCESS:     724437  HIT:     724437  MISS:          0  HIT %:        100  MISS %:          0   MPKI: 0
PSCL4 LOAD TRANSLATION ACCESS:     554722  HIT:     554722  MISS:          0  HIT %:        100  MISS %:          0   MPKI: 0
PSCL4 PREFETCH TRANSLATION ACCESS:     169715  HIT:     169715  MISS:          0  HIT %:        100  MISS %:          0   MPKI: 0
PSCL4 PREFETCH  REQUESTED:          0  ISSUED:          0  USEFUL:          0  USELESS:          0
PSCL4 USEFUL LOAD PREFETCHES:          0 PREFETCH ISSUED TO LOWER LEVEL:          0  ACCURACY: -nan
PSCL4 TIMELY PREFETCHES:          0 LATE PREFETCHES: 0 DROPPED PREFETCHES: 0
PSCL4 PREFETCHES SAME FILL-ORIGIN LEVEL: 0 DIFFERENT FILL-ORIGIN LEVEL: 0

PSCL3 TOTAL     ACCESS:     724378  HIT:     724378  MISS:          0  HIT %:        100  MISS %:          0   MPKI: 0
PSCL3 LOAD TRANSLATION ACCESS:     554722  HIT:     554722  MISS:          0  HIT %:        100  MISS %:          0   MPKI: 0
PSCL3 PREFETCH TRANSLATION ACCESS:     169656  HIT:     169656  MISS:          0  HIT %:        100  MISS %:          0   MPKI: 0
PSCL3 PREFETCH  REQUESTED:          0  ISSUED:          0  USEFUL:          0  USELESS:          0
PSCL3 USEFUL LOAD PREFETCHES:          0 PREFETCH ISSUED TO LOWER LEVEL:          0  ACCURACY: -nan
PSCL3 TIMELY PREFETCHES:          0 LATE PREFETCHES: 0 DROPPED PREFETCHES: 0
PSCL3 PREFETCHES SAME FILL-ORIGIN LEVEL: 0 DIFFERENT FILL-ORIGIN LEVEL: 0

PSCL2 TOTAL     ACCESS:     714095  HIT:     636710  MISS:      77385  HIT %:    89.1632  MISS %:    10.8368   MPKI: 3.0954
PSCL2 LOAD TRANSLATION ACCESS:     571405  HIT:     494020  MISS:      77385  HIT %:    86.4571  MISS %:    13.5429   MPKI: 3.0954
PSCL2 PREFETCH TRANSLATION ACCESS:     142690  HIT:     142690  MISS:          0  HIT %:        100  MISS %:          0   MPKI: 0
PSCL2 PREFETCH  REQUESTED:          0  ISSUED:          0  USEFUL:          0  USELESS:          0
PSCL2 USEFUL LOAD PREFETCHES:          0 PREFETCH ISSUED TO LOWER LEVEL:          0  ACCURACY: -nan
PSCL2 TIMELY PREFETCHES:          0 LATE PREFETCHES: 0 DROPPED PREFETCHES: 0
PSCL2 PREFETCHES SAME FILL-ORIGIN LEVEL: 0 DIFFERENT FILL-ORIGIN LEVEL: 0

LLC TOTAL     ACCESS:    1569063  HIT:     916244  MISS:     652819  HIT %:    58.3943  MISS %:    41.6057   MPKI: 26.1128
LLC LOAD      ACCESS:     721255  HIT:      79781  MISS:     641474  HIT %:    11.0614  MISS %:    88.9386   MPKI: 25.659
LLC RFO       ACCESS:      28278  HIT:      28274  MISS:          4  HIT %:    99.9859  MISS %:  0.0141453   MPKI: 0.00016
LLC WRITEBACK ACCESS:     554616  HIT:     554616  MISS:          0  HIT %:        100  MISS %:          0   MPKI: 0
LLC LOAD TRANSLATION ACCESS:     211742  HIT:     204915  MISS:       6827  HIT %:    96.7758  MISS %:    3.22421   MPKI: 0.27308
LLC PREFETCH TRANSLATION ACCESS:      53172  HIT:      48658  MISS:       4514  HIT %:    91.5106  MISS %:    8.48943   MPKI: 0.18056
LLC PREFETCH  REQUESTED:          0  ISSUED:          0  USEFUL:       3191  USELESS:       1423
LLC USEFUL LOAD PREFETCHES:       3191 PREFETCH ISSUED TO LOWER LEVEL:          0  ACCURACY: inf
LLC TIMELY PREFETCHES:       3191 LATE PREFETCHES: 0 DROPPED PREFETCHES: 0
LLC PREFETCHES SAME FILL-ORIGIN LEVEL: 0 DIFFERENT FILL-ORIGIN LEVEL: 0
LLC AVERAGE MISS LATENCY: 170.623 cycles
LLC RQ	ACCESS:    1014448	FORWARD:          0	MERGED:          0	TO_CACHE:    1014448
LLC WQ	ACCESS:     554616	FORWARD:          0	MERGED:          0	TO_CACHE:     554616

LLC Dense regions hint to LLC: 0

RAW hits: 487232
Loads Generated: 6650533
Loads sent to L1D: 6163298
Stores Generated: 1108670
Stores sent to L1D: 1108674
Major fault: 0 Minor fault: 23115
Allocated PAGES: 23115
CPU 0 STLB arbitrary stride prefetcher final stats
Degree: 4

DRAM Statistics
 CHANNEL 0
 RQ ROW_BUFFER_HIT:        806  ROW_BUFFER_MISS:     652013
 DBUS_CONGESTED:          6
 WQ ROW_BUFFER_HIT:     209291  ROW_BUFFER_MISS:     344942  FULL:          0

 AVG_CONGESTED_CYCLE: 5
 All warmup complete: 2
Channel 0 Bank busy for read cycles: 0
Channel 0 Bank busy for write cycles: 0
Channel 0
Rank 0
0banks busy for read cycles: 2617524
0banks busy for write cycles: 59833
1banks busy for read cycles: 20303519
1banks busy for write cycles: 4673139
2banks busy for read cycles: 14123887
2banks busy for write cycles: 6838608
3banks busy for read cycles: 11425630
3banks busy for write cycles: 9882444
4banks busy for read cycles: 3683053
4banks busy for write cycles: 8278156
5banks busy for read cycles: 56040
5banks busy for write cycles: 3240596
6banks busy for read cycles: 292
6banks busy for write cycles: 1280332
7banks busy for read cycles: 0
7banks busy for write cycles: 624246
8banks busy for read cycles: 0
8banks busy for write cycles: 516834

CPU 0 Branch Prediction Accuracy: 99.9685% MPKI: 0.04912 Average ROB Occupancy at Mispredict: 155.698
Branch types
NOT_BRANCH: 21105652 84.4226%
BRANCH_DIRECT_JUMP: 568311 2.27324%
BRANCH_INDIRECT: 0 0%
BRANCH_CONDITIONAL: 2217337 8.86935%
BRANCH_DIRECT_CALL: 554334 2.21734%
BRANCH_INDIRECT_CALL: 0 0%
BRANCH_RETURN: 554334 2.21734%
BRANCH_OTHER: 0 0%

DRAM PAGES: 1048576
Allocated PAGES: 23115
