
*** ChampSim Multicore Out-of-Order Simulator ***

Warmup Instructions: 25000000
Simulation Instructions: 25000000
Number of CPUs: 1
LLC sets: 2048
LLC ways: 16
Off-chip DRAM Size: 4096 MB Channels: 1 Width: 64-bit Data Rate: 6400 MT/s
CPU 0 runs given/traces/trace3.champsimtrace.xz
.xz
CPU 0 Bimodal branch predictor
BTB has LRU replacement policy
ITLB has LRU replacement policy
DTLB has LRU replacement policy
STLB has LRU replacement policy
L1I has LRU replacement policy
L1D has LRU replacement policy
L2C has LRU replacement policy
LLC has LRU replacement policy
Heartbeat CPU 0 instructions: 10000001 cycles: 3773639 heartbeat IPC: 2.64996 cumulative IPC: 2.64996 (Simulation time: 0 hr 0 min 54 sec) 
Heartbeat CPU 0 instructions: 20000000 cycles: 7519176 heartbeat IPC: 2.66984 cumulative IPC: 2.65987 (Simulation time: 0 hr 1 min 48 sec) 

Warmup complete CPU 0 instructions: 25000004 cycles: 9422659 (Simulation time: 0 hr 2 min 15 sec) 

Heartbeat CPU 0 instructions: 30000001 cycles: 44501335 heartbeat IPC: 0.270401 cumulative IPC: 0.142537 (Simulation time: 0 hr 3 min 7 sec) 
Retire attempted: 68658449 Failed due to ip: 1349579 Failed due to non completion: 0 Retired instructions: 33612241
Heartbeat CPU 0 instructions: 40000001 cycles: 114513181 heartbeat IPC: 0.142833 cumulative IPC: 0.142734 (Simulation time: 0 hr 4 min 51 sec) 
Heartbeat CPU 0 instructions: 50000000 cycles: 187764768 heartbeat IPC: 0.136516 cumulative IPC: 0.14018 (Simulation time: 0 hr 6 min 37 sec) 
Finished CPU 0 instructions: 25000000 cycles: 178342111 cumulative IPC: 0.14018 (Simulation time: 0 hr 6 min 37 sec) 

ChampSim completed all CPUs

Region of Interest Statistics

CPU 0 cumulative IPC: 0.14018 instructions: 25000000 cycles: 178342111
ITLB TOTAL     ACCESS:    4069528  HIT:    4069528  MISS:          0  HIT %:        100  MISS %:          0   MPKI: 0
ITLB LOAD TRANSLATION ACCESS:    4069528  HIT:    4069528  MISS:          0  HIT %:        100  MISS %:          0   MPKI: 0
ITLB PREFETCH  REQUESTED:          0  ISSUED:          0  USEFUL:          0  USELESS:          0
ITLB USEFUL LOAD PREFETCHES:          0 PREFETCH ISSUED TO LOWER LEVEL:          0  ACCURACY: -nan
ITLB TIMELY PREFETCHES:          0 LATE PREFETCHES: 0 DROPPED PREFETCHES: 0
ITLB PREFETCHES SAME FILL-ORIGIN LEVEL: 0 DIFFERENT FILL-ORIGIN LEVEL: 0
ITLB AVERAGE MISS LATENCY: -nan cycles
ITLB RQ	ACCESS:    4120690	FORWARD:          0	MERGED:      51163	TO_CACHE:    4069527

DTLB TOTAL     ACCESS:    5251448  HIT:    3047260  MISS:    2204188  HIT %:     58.027  MISS %:     41.973   MPKI: 88.1675
DTLB LOAD TRANSLATION ACCESS:    5251448  HIT:    3047260  MISS:    2204188  HIT %:     58.027  MISS %:     41.973   MPKI: 88.1675
DTLB PREFETCH  REQUESTED:          0  ISSUED:          0  USEFUL:          0  USELESS:          0
DTLB USEFUL LOAD PREFETCHES:          0 PREFETCH ISSUED TO LOWER LEVEL:          0  ACCURACY: -nan
DTLB TIMELY PREFETCHES:          0 LATE PREFETCHES: 0 DROPPED PREFETCHES: 0
DTLB PREFETCHES SAME FILL-ORIGIN LEVEL: 0 DIFFERENT FILL-ORIGIN LEVEL: 0
DTLB AVERAGE MISS LATENCY: 10.8464 cycles
DTLB RQ	ACCESS:    5782641	FORWARD:          0	MERGED:     496541	TO_CACHE:    5286100

STLB TOTAL     ACCESS:    2204188  HIT:    2175142  MISS:      29046  HIT %:    98.6822  MISS %:    1.31776   MPKI: 1.16184
STLB LOAD TRANSLATION ACCESS:    2204188  HIT:    2175142  MISS:      29046  HIT %:    98.6822  MISS %:    1.31776   MPKI: 1.16184
STLB PREFETCH  REQUESTED:          0  ISSUED:          0  USEFUL:          0  USELESS:          0
STLB USEFUL LOAD PREFETCHES:          0 PREFETCH ISSUED TO LOWER LEVEL:          0  ACCURACY: -nan
STLB TIMELY PREFETCHES:          0 LATE PREFETCHES: 0 DROPPED PREFETCHES: 0
STLB PREFETCHES SAME FILL-ORIGIN LEVEL: 0 DIFFERENT FILL-ORIGIN LEVEL: 0
STLB AVERAGE MISS LATENCY: 133.846 cycles
STLB RQ	ACCESS:    2204188	FORWARD:          0	MERGED:          0	TO_CACHE:    2204188

STLB Hit, L1D data hit: 0
STLB Hit, L2C data hit: 0
STLB Hit, LLC data hit: 0
STLB Hit, LLC data miss: 0
STLB STLB hints to L2: 0
L1D TOTAL     ACCESS:    5560685  HIT:    1678715  MISS:    3881970  HIT %:     30.189  MISS %:     69.811   MPKI: 155.279
L1D LOAD      ACCESS:    5136605  HIT:    1262537  MISS:    3874068  HIT %:    24.5792  MISS %:    75.4208   MPKI: 154.963
L1D RFO       ACCESS:     424080  HIT:     416178  MISS:       7902  HIT %:    98.1367  MISS %:    1.86333   MPKI: 0.31608
L1D PREFETCH  REQUESTED:          0  ISSUED:          0  USEFUL:          0  USELESS:          0
L1D USEFUL LOAD PREFETCHES:          0 PREFETCH ISSUED TO LOWER LEVEL:          0  ACCURACY: -nan
L1D TIMELY PREFETCHES:          0 LATE PREFETCHES: 0 DROPPED PREFETCHES: 0
L1D PREFETCHES SAME FILL-ORIGIN LEVEL: 0 DIFFERENT FILL-ORIGIN LEVEL: 0
L1D AVERAGE MISS LATENCY: 109.464 cycles
L1D RQ	ACCESS:    8951602	FORWARD:          0	MERGED:    3547239	TO_CACHE:    5339514
L1D WQ	ACCESS:     459661	FORWARD:      64849	MERGED:      16534	TO_CACHE:     443127

L1D UNIQUE REGIONS ACCESSED: 0
L1D REGIONS CONFLICTS: 0
L1D Cross Page Prefetch Requests: 0
L1D Same Page Prefetch Requests: 0
L1D ROI Sum of L1D PQ occupancy: 0
L1D PREFETCHES PUSHED FROM L2C: 0
L1I TOTAL     ACCESS:    4120691  HIT:    4120691  MISS:          0  HIT %:        100  MISS %:          0   MPKI: 0
L1I LOAD      ACCESS:    4120691  HIT:    4120691  MISS:          0  HIT %:        100  MISS %:          0   MPKI: 0
L1I PREFETCH  REQUESTED:          0  ISSUED:          0  USEFUL:          0  USELESS:          0
L1I USEFUL LOAD PREFETCHES:          0 PREFETCH ISSUED TO LOWER LEVEL:          0  ACCURACY: -nan
L1I TIMELY PREFETCHES:          0 LATE PREFETCHES: 0 DROPPED PREFETCHES: 0
L1I PREFETCHES SAME FILL-ORIGIN LEVEL: 0 DIFFERENT FILL-ORIGIN LEVEL: 0
L1I AVERAGE MISS LATENCY: -nan cycles
L1I RQ	ACCESS:    5531581	FORWARD:          0	MERGED:    1410891	TO_CACHE:    4120690

BTB TOTAL     ACCESS:    7381233  HIT:    7359090  MISS:      22143  HIT %:       99.7  MISS %:   0.299991   MPKI: 0.88572
BTB BRANCH_DIRECT_JUMP	ACCESS:     954613  HIT:     954578  MISS:         35
BTB BRANCH_INDIRECT	ACCESS:          0  HIT:          0  MISS:          0
BTB BRANCH_CONDITIONAL	ACCESS:    6254608  HIT:    6254529  MISS:         79
BTB BRANCH_DIRECT_CALL	ACCESS:      79755  HIT:      79739  MISS:         16
BTB BRANCH_INDIRECT_CALL	ACCESS:       6250  HIT:       6242  MISS:          8
BTB BRANCH_RETURN	ACCESS:      86007  HIT:      64002  MISS:      22005
BTB BRANCH_OTHER ACCESS:          0  HIT:          0  MISS:          0

L2C TOTAL     ACCESS:    3990929  HIT:     512240  MISS:    3478689  HIT %:    12.8351  MISS %:    87.1649   MPKI: 139.148
L2C LOAD      ACCESS:    3874062  HIT:     411590  MISS:    3462472  HIT %:    10.6242  MISS %:    89.3758   MPKI: 138.499
L2C DATA LOAD MPKI: 138.499
L2C INSTRUCTION LOAD MPKI: 0
L2C RFO       ACCESS:       7902  HIT:        771  MISS:       7131  HIT %:    9.75702  MISS %:     90.243   MPKI: 0.28524
L2C WRITEBACK ACCESS:      79745  HIT:      79745  MISS:          0  HIT %:        100  MISS %:          0   MPKI: 0
L2C LOAD TRANSLATION ACCESS:      29220  HIT:      20134  MISS:       9086  HIT %:    68.9049  MISS %:    31.0951   MPKI: 0.36344
L2C PREFETCH  REQUESTED:          0  ISSUED:          0  USEFUL:          0  USELESS:          0
L2C USEFUL LOAD PREFETCHES:          0 PREFETCH ISSUED TO LOWER LEVEL:          0  ACCURACY: -nan
L2C TIMELY PREFETCHES:          0 LATE PREFETCHES: 0 DROPPED PREFETCHES: 0
L2C PREFETCHES SAME FILL-ORIGIN LEVEL: 0 DIFFERENT FILL-ORIGIN LEVEL: 0
L2C AVERAGE MISS LATENCY: 105.6 cycles
L2C RQ	ACCESS:    3911190	FORWARD:          0	MERGED:          0	TO_CACHE:    3911184
L2C WQ	ACCESS:      79745	FORWARD:          6	MERGED:          0	TO_CACHE:      79745

L2C Instructions Evicting Data 0
L2C Translations Evicting Data 9067
L2C Data Evicting Data 3460555
L2C Instructions Evicting Instructions 0
L2C Translations Evicting Instructions 0
L2C Data Evicting Instructions 0
L2C Instructions Evicting Translations 0
L2C Translations Evicting Translations 19
L2C Data Evicting Translations 9048
L2C Dense regions hint from L2: 0
PSCL5 TOTAL     ACCESS:      29046  HIT:      29046  MISS:          0  HIT %:        100  MISS %:          0   MPKI: 0
PSCL5 LOAD TRANSLATION ACCESS:      29046  HIT:      29046  MISS:          0  HIT %:        100  MISS %:          0   MPKI: 0
PSCL5 PREFETCH  REQUESTED:          0  ISSUED:          0  USEFUL:          0  USELESS:          0
PSCL5 USEFUL LOAD PREFETCHES:          0 PREFETCH ISSUED TO LOWER LEVEL:          0  ACCURACY: -nan
PSCL5 TIMELY PREFETCHES:          0 LATE PREFETCHES: 0 DROPPED PREFETCHES: 0
PSCL5 PREFETCHES SAME FILL-ORIGIN LEVEL: 0 DIFFERENT FILL-ORIGIN LEVEL: 0

PSCL4 TOTAL     ACCESS:      29046  HIT:      29046  MISS:          0  HIT %:        100  MISS %:          0   MPKI: 0
PSCL4 LOAD TRANSLATION ACCESS:      29046  HIT:      29046  MISS:          0  HIT %:        100  MISS %:          0   MPKI: 0
PSCL4 PREFETCH  REQUESTED:          0  ISSUED:          0  USEFUL:          0  USELESS:          0
PSCL4 USEFUL LOAD PREFETCHES:          0 PREFETCH ISSUED TO LOWER LEVEL:          0  ACCURACY: -nan
PSCL4 TIMELY PREFETCHES:          0 LATE PREFETCHES: 0 DROPPED PREFETCHES: 0
PSCL4 PREFETCHES SAME FILL-ORIGIN LEVEL: 0 DIFFERENT FILL-ORIGIN LEVEL: 0

PSCL3 TOTAL     ACCESS:      29046  HIT:      29046  MISS:          0  HIT %:        100  MISS %:          0   MPKI: 0
PSCL3 LOAD TRANSLATION ACCESS:      29046  HIT:      29046  MISS:          0  HIT %:        100  MISS %:          0   MPKI: 0
PSCL3 PREFETCH  REQUESTED:          0  ISSUED:          0  USEFUL:          0  USELESS:          0
PSCL3 USEFUL LOAD PREFETCHES:          0 PREFETCH ISSUED TO LOWER LEVEL:          0  ACCURACY: -nan
PSCL3 TIMELY PREFETCHES:          0 LATE PREFETCHES: 0 DROPPED PREFETCHES: 0
PSCL3 PREFETCHES SAME FILL-ORIGIN LEVEL: 0 DIFFERENT FILL-ORIGIN LEVEL: 0

PSCL2 TOTAL     ACCESS:      29046  HIT:      28736  MISS:        310  HIT %:    98.9327  MISS %:    1.06727   MPKI: 0.0124
PSCL2 LOAD TRANSLATION ACCESS:      29046  HIT:      28736  MISS:        310  HIT %:    98.9327  MISS %:    1.06727   MPKI: 0.0124
PSCL2 PREFETCH  REQUESTED:          0  ISSUED:          0  USEFUL:          0  USELESS:          0
PSCL2 USEFUL LOAD PREFETCHES:          0 PREFETCH ISSUED TO LOWER LEVEL:          0  ACCURACY: -nan
PSCL2 TIMELY PREFETCHES:          0 LATE PREFETCHES: 0 DROPPED PREFETCHES: 0
PSCL2 PREFETCHES SAME FILL-ORIGIN LEVEL: 0 DIFFERENT FILL-ORIGIN LEVEL: 0

LLC TOTAL     ACCESS:    3554222  HIT:    1559193  MISS:    1995029  HIT %:    43.8688  MISS %:    56.1312   MPKI: 79.8012
LLC LOAD      ACCESS:    3462472  HIT:    1473774  MISS:    1988698  HIT %:    42.5642  MISS %:    57.4358   MPKI: 79.5479
LLC RFO       ACCESS:       7131  HIT:       5998  MISS:       1133  HIT %:    84.1116  MISS %:    15.8884   MPKI: 0.04532
LLC WRITEBACK ACCESS:      75533  HIT:      75418  MISS:        115  HIT %:    99.8477  MISS %:   0.152251   MPKI: 0.0046
LLC LOAD TRANSLATION ACCESS:       9086  HIT:       4003  MISS:       5083  HIT %:    44.0568  MISS %:    55.9432   MPKI: 0.20332
LLC PREFETCH  REQUESTED:          0  ISSUED:          0  USEFUL:          0  USELESS:          0
LLC USEFUL LOAD PREFETCHES:          0 PREFETCH ISSUED TO LOWER LEVEL:          0  ACCURACY: -nan
LLC TIMELY PREFETCHES:          0 LATE PREFETCHES: 0 DROPPED PREFETCHES: 0
LLC PREFETCHES SAME FILL-ORIGIN LEVEL: 0 DIFFERENT FILL-ORIGIN LEVEL: 0
LLC AVERAGE MISS LATENCY: 131.084 cycles
LLC RQ	ACCESS:    3478689	FORWARD:          0	MERGED:          0	TO_CACHE:    3478689
LLC WQ	ACCESS:      75533	FORWARD:          0	MERGED:          0	TO_CACHE:      75533

LLC Dense regions hint to LLC: 0

RAW hits: 62725
Loads Generated: 9014327
Loads sent to L1D: 8951602
Stores Generated: 459660
Stores sent to L1D: 459661
Major fault: 0 Minor fault: 44120
Allocated PAGES: 44120

DRAM Statistics
 CHANNEL 0
 RQ ROW_BUFFER_HIT:     924339  ROW_BUFFER_MISS:    1070556
 DBUS_CONGESTED:        355
 WQ ROW_BUFFER_HIT:      11845  ROW_BUFFER_MISS:      27914  FULL:          0

 AVG_CONGESTED_CYCLE: 4
 All warmup complete: 2
Channel 0 Bank busy for read cycles: 0
Channel 0 Bank busy for write cycles: 0
Channel 0
Rank 0
0banks busy for read cycles: 67170703
0banks busy for write cycles: 16169
1banks busy for read cycles: 54650076
1banks busy for write cycles: 3147845
2banks busy for read cycles: 25931383
2banks busy for write cycles: 633103
3banks busy for read cycles: 13647532
3banks busy for write cycles: 279580
4banks busy for read cycles: 6643741
4banks busy for write cycles: 162837
5banks busy for read cycles: 2792160
5banks busy for write cycles: 128930
6banks busy for read cycles: 1144111
6banks busy for write cycles: 114960
7banks busy for read cycles: 625105
7banks busy for write cycles: 129020
8banks busy for read cycles: 947705
8banks busy for write cycles: 177152

CPU 0 Branch Prediction Accuracy: 96.3142% MPKI: 11.2642 Average ROB Occupancy at Mispredict: 49.3661
Branch types
NOT_BRANCH: 17359361 69.4374%
BRANCH_DIRECT_JUMP: 954613 3.81845%
BRANCH_INDIRECT: 0 0%
BRANCH_CONDITIONAL: 6513665 26.0547%
BRANCH_DIRECT_CALL: 79755 0.31902%
BRANCH_INDIRECT_CALL: 6250 0.025%
BRANCH_RETURN: 86007 0.344028%
BRANCH_OTHER: 0 0%

DRAM PAGES: 1048576
Allocated PAGES: 44120
