
*** ChampSim Multicore Out-of-Order Simulator ***

Warmup Instructions: 25000000
Simulation Instructions: 25000000
Number of CPUs: 1
LLC sets: 2048
LLC ways: 16
Off-chip DRAM Size: 4096 MB Channels: 1 Width: 64-bit Data Rate: 6400 MT/s
CPU 0 runs given/traces/trace2.champsimtrace.xz
.xz
CPU 0 Bimodal branch predictor
BTB has LRU replacement policy
ITLB has LRU replacement policy
DTLB has LRU replacement policy
STLB has LRU replacement policy
L1I has LRU replacement policy
CPU 0 L1D Complex-Stride prefetcher initialized
L1D has LRU replacement policy
L2C has LRU replacement policy
LLC has LRU replacement policy
Heartbeat CPU 0 instructions: 10000002 cycles: 3734155 heartbeat IPC: 2.67798 cumulative IPC: 2.67798 (Simulation time: 0 hr 0 min 15 sec) 
Heartbeat CPU 0 instructions: 20000001 cycles: 7469583 heartbeat IPC: 2.67707 cumulative IPC: 2.67753 (Simulation time: 0 hr 0 min 29 sec) 

Warmup complete CPU 0 instructions: 25000001 cycles: 9336267 (Simulation time: 0 hr 0 min 37 sec) 

Heartbeat CPU 0 instructions: 30000001 cycles: 23339457 heartbeat IPC: 0.630125 cumulative IPC: 0.357062 (Simulation time: 0 hr 0 min 49 sec) 
Heartbeat CPU 0 instructions: 40000002 cycles: 51198957 heartbeat IPC: 0.358944 cumulative IPC: 0.358314 (Simulation time: 0 hr 1 min 14 sec) 
Heartbeat CPU 0 instructions: 50000000 cycles: 78540064 heartbeat IPC: 0.36575 cumulative IPC: 0.361252 (Simulation time: 0 hr 1 min 38 sec) 
Finished CPU 0 instructions: 25000000 cycles: 69203819 cumulative IPC: 0.361252 (Simulation time: 0 hr 1 min 38 sec) 

ChampSim completed all CPUs

Region of Interest Statistics

CPU 0 cumulative IPC: 0.361252 instructions: 25000000 cycles: 69203819
ITLB TOTAL     ACCESS:    4559628  HIT:    4559628  MISS:          0  HIT %:        100  MISS %:          0   MPKI: 0
ITLB LOAD TRANSLATION ACCESS:    4559628  HIT:    4559628  MISS:          0  HIT %:        100  MISS %:          0   MPKI: 0
ITLB PREFETCH  REQUESTED:          0  ISSUED:          0  USEFUL:          0  USELESS:          0
ITLB USEFUL LOAD PREFETCHES:          0 PREFETCH ISSUED TO LOWER LEVEL:          0  ACCURACY: -nan
ITLB TIMELY PREFETCHES:          0 LATE PREFETCHES: 0 DROPPED PREFETCHES: 0
ITLB PREFETCHES SAME FILL-ORIGIN LEVEL: 0 DIFFERENT FILL-ORIGIN LEVEL: 0
ITLB AVERAGE MISS LATENCY: -nan cycles
ITLB RQ	ACCESS:    4645041	FORWARD:          0	MERGED:      85414	TO_CACHE:    4559627

DTLB TOTAL     ACCESS:    3869040  HIT:    3835027  MISS:      34013  HIT %:    99.1209  MISS %:   0.879107   MPKI: 1.36052
DTLB LOAD TRANSLATION ACCESS:    3869040  HIT:    3835027  MISS:      34013  HIT %:    99.1209  MISS %:   0.879107   MPKI: 1.36052
DTLB PREFETCH  REQUESTED:          0  ISSUED:          0  USEFUL:          0  USELESS:          0
DTLB USEFUL LOAD PREFETCHES:          0 PREFETCH ISSUED TO LOWER LEVEL:          0  ACCURACY: -nan
DTLB TIMELY PREFETCHES:          0 LATE PREFETCHES: 0 DROPPED PREFETCHES: 0
DTLB PREFETCHES SAME FILL-ORIGIN LEVEL: 0 DIFFERENT FILL-ORIGIN LEVEL: 0
DTLB AVERAGE MISS LATENCY: 106.679 cycles
DTLB RQ	ACCESS:    4553777	FORWARD:          0	MERGED:     684612	TO_CACHE:    3869165

STLB TOTAL     ACCESS:    1858580  HIT:    1825911  MISS:      32669  HIT %:    98.2423  MISS %:    1.75774   MPKI: 1.30676
STLB LOAD TRANSLATION ACCESS:      34013  HIT:       1346  MISS:      32667  HIT %:    3.95731  MISS %:    96.0427   MPKI: 1.30668
STLB TRANSLATION FROM L1D PREFETCHER ACCESS:    1824567  HIT:    1824565  MISS:          2  HIT %:    99.9999  MISS %: 0.000109615   MPKI: 8e-05
STLB PREFETCH  REQUESTED:          0  ISSUED:          0  USEFUL:          1  USELESS:          0
STLB USEFUL LOAD PREFETCHES:          1 PREFETCH ISSUED TO LOWER LEVEL:          0  ACCURACY: inf
STLB TIMELY PREFETCHES:          1 LATE PREFETCHES: 0 DROPPED PREFETCHES: 0
STLB PREFETCHES SAME FILL-ORIGIN LEVEL: 0 DIFFERENT FILL-ORIGIN LEVEL: 0
STLB AVERAGE MISS LATENCY: 101.697 cycles
STLB RQ	ACCESS:    9738059	FORWARD:          0	MERGED:    7879479	TO_CACHE:    1858580

STLB Hit, L1D data hit: 0
STLB Hit, L2C data hit: 0
STLB Hit, LLC data hit: 0
STLB Hit, LLC data miss: 0
STLB STLB hints to L2: 0
L1D TOTAL     ACCESS:   10291795  HIT:    8489790  MISS:    1802005  HIT %:    82.4909  MISS %:    17.5091   MPKI: 72.0802
L1D LOAD      ACCESS:    4185112  HIT:    3935503  MISS:     249609  HIT %:    94.0358  MISS %:    5.96421   MPKI: 9.98436
L1D RFO       ACCESS:     333328  HIT:     332886  MISS:        442  HIT %:    99.8674  MISS %:   0.132602   MPKI: 0.01768
L1D PREFETCH  ACCESS:    5773355  HIT:    4221401  MISS:    1551954  HIT %:    73.1187  MISS %:    26.8813   MPKI: 62.0782
AGUS PREFETCH L1 MISS: 0
L1D PREFETCH  REQUESTED:   20473734  ISSUED:   20473733  USEFUL:    1500360  USELESS:      51627
L1D USEFUL LOAD PREFETCHES:    1500360 PREFETCH ISSUED TO LOWER LEVEL:    1746481  ACCURACY: 85.9076
L1D TIMELY PREFETCHES:    1500360 LATE PREFETCHES: 194468 DROPPED PREFETCHES: 0
L1D PREFETCHES SAME FILL-ORIGIN LEVEL: 1746481 DIFFERENT FILL-ORIGIN LEVEL: 0
L1D AVERAGE MISS LATENCY: 4.76195e+06 cycles
L1D RQ	ACCESS:    8972941	FORWARD:          0	MERGED:    4750934	TO_CACHE:    4220445
L1D WQ	ACCESS:     370377	FORWARD:       1562	MERGED:      37045	TO_CACHE:     333332
L1D PQ	ACCESS:   10769687	FORWARD:          0	MERGED:    1065641	TO_CACHE:    9704046

L1D UNIQUE REGIONS ACCESSED: 0
L1D REGIONS CONFLICTS: 0
L1D Cross Page Prefetch Requests: 0
L1D Same Page Prefetch Requests: 28967789
L1D ROI Sum of L1D PQ occupancy: 128833289
L1D PREFETCHES PUSHED FROM L2C: 0
L1I TOTAL     ACCESS:    4645041  HIT:    4645041  MISS:          0  HIT %:        100  MISS %:          0   MPKI: 0
L1I LOAD      ACCESS:    4645041  HIT:    4645041  MISS:          0  HIT %:        100  MISS %:          0   MPKI: 0
L1I PREFETCH  REQUESTED:          0  ISSUED:          0  USEFUL:          0  USELESS:          0
L1I USEFUL LOAD PREFETCHES:          0 PREFETCH ISSUED TO LOWER LEVEL:          0  ACCURACY: -nan
L1I TIMELY PREFETCHES:          0 LATE PREFETCHES: 0 DROPPED PREFETCHES: 0
L1I PREFETCHES SAME FILL-ORIGIN LEVEL: 0 DIFFERENT FILL-ORIGIN LEVEL: 0
L1I AVERAGE MISS LATENCY: -nan cycles
L1I RQ	ACCESS:    6977166	FORWARD:          0	MERGED:    2332125	TO_CACHE:    4645041

BTB TOTAL     ACCESS:    5953193  HIT:    5953095  MISS:         98  HIT %:    99.9984  MISS %: 0.00164618   MPKI: 0.00392
BTB BRANCH_DIRECT_JUMP	ACCESS:      85874  HIT:      85848  MISS:         26
BTB BRANCH_INDIRECT	ACCESS:          0  HIT:          0  MISS:          0
BTB BRANCH_CONDITIONAL	ACCESS:    5783213  HIT:    5783164  MISS:         49
BTB BRANCH_DIRECT_CALL	ACCESS:      42053  HIT:      42043  MISS:         10
BTB BRANCH_INDIRECT_CALL	ACCESS:          0  HIT:          0  MISS:          0
BTB BRANCH_RETURN	ACCESS:      42053  HIT:      42040  MISS:         13
BTB BRANCH_OTHER ACCESS:          0  HIT:          0  MISS:          0

L2C TOTAL     ACCESS:    1838088  HIT:      43346  MISS:    1794742  HIT %:    2.35821  MISS %:    97.6418   MPKI: 71.7897
L2C LOAD      ACCESS:      55140  HIT:       2696  MISS:      52444  HIT %:    4.88937  MISS %:    95.1106   MPKI: 2.09776
L2C DATA LOAD MPKI: 2.09776
L2C INSTRUCTION LOAD MPKI: 0
L2C RFO       ACCESS:        383  HIT:        101  MISS:        282  HIT %:    26.3708  MISS %:    73.6292   MPKI: 0.01128
L2C PREFETCH  ACCESS:    1746481  HIT:      11943  MISS:    1734538  HIT %:   0.683832  MISS %:    99.3162   MPKI: 69.3815
AGUS PREFETCH L1 MISS: 0
L2C DATA PREFETCH MPKI: 69.3815
L2C INSTRUCTION PREFETCH MPKI: 0
L2C WRITEBACK ACCESS:       2783  HIT:       2775  MISS:          8  HIT %:    99.7125  MISS %:    0.28746   MPKI: 0.00032
L2C LOAD TRANSLATION ACCESS:      33298  HIT:      25830  MISS:       7468  HIT %:    77.5722  MISS %:    22.4278   MPKI: 0.29872
L2C TRANSLATION FROM L1D PREFETCHER ACCESS:          3  HIT:          1  MISS:          2  HIT %:    33.3333  MISS %:    66.6667   MPKI: 8e-05
L2C PREFETCH  REQUESTED:          0  ISSUED:          0  USEFUL:       2112  USELESS:    1732233
L2C USEFUL LOAD PREFETCHES:       2112 PREFETCH ISSUED TO LOWER LEVEL:    1734538  ACCURACY: 0.121762
L2C TIMELY PREFETCHES:       2112 LATE PREFETCHES: 0 DROPPED PREFETCHES: 0
L2C PREFETCHES SAME FILL-ORIGIN LEVEL: 0 DIFFERENT FILL-ORIGIN LEVEL: 0
L2C AVERAGE MISS LATENCY: 108.454 cycles
L2C RQ	ACCESS:      88825	FORWARD:          0	MERGED:          0	TO_CACHE:      88824
L2C WQ	ACCESS:       2783	FORWARD:          1	MERGED:          0	TO_CACHE:       2783
L2C PQ	ACCESS:    1746481	FORWARD:          0	MERGED:          0	TO_CACHE:    1746481

L2C Instructions Evicting Data 0
L2C Translations Evicting Data 7445
L2C Data Evicting Data 1779833
L2C Instructions Evicting Instructions 0
L2C Translations Evicting Instructions 0
L2C Data Evicting Instructions 0
L2C Instructions Evicting Translations 0
L2C Translations Evicting Translations 25
L2C Data Evicting Translations 7431
L2C Dense regions hint from L2: 0
PSCL5 TOTAL     ACCESS:      32669  HIT:      32669  MISS:          0  HIT %:        100  MISS %:          0   MPKI: 0
PSCL5 LOAD TRANSLATION ACCESS:      32667  HIT:      32667  MISS:          0  HIT %:        100  MISS %:          0   MPKI: 0
PSCL5 TRANSLATION FROM L1D PREFETCHER ACCESS:          2  HIT:          2  MISS:          0  HIT %:        100  MISS %:          0   MPKI: 0
PSCL5 PREFETCH  REQUESTED:          0  ISSUED:          0  USEFUL:          0  USELESS:          0
PSCL5 USEFUL LOAD PREFETCHES:          0 PREFETCH ISSUED TO LOWER LEVEL:          0  ACCURACY: -nan
PSCL5 TIMELY PREFETCHES:          0 LATE PREFETCHES: 0 DROPPED PREFETCHES: 0
PSCL5 PREFETCHES SAME FILL-ORIGIN LEVEL: 0 DIFFERENT FILL-ORIGIN LEVEL: 0

PSCL4 TOTAL     ACCESS:      32669  HIT:      32669  MISS:          0  HIT %:        100  MISS %:          0   MPKI: 0
PSCL4 LOAD TRANSLATION ACCESS:      32667  HIT:      32667  MISS:          0  HIT %:        100  MISS %:          0   MPKI: 0
PSCL4 TRANSLATION FROM L1D PREFETCHER ACCESS:          2  HIT:          2  MISS:          0  HIT %:        100  MISS %:          0   MPKI: 0
PSCL4 PREFETCH  REQUESTED:          0  ISSUED:          0  USEFUL:          0  USELESS:          0
PSCL4 USEFUL LOAD PREFETCHES:          0 PREFETCH ISSUED TO LOWER LEVEL:          0  ACCURACY: -nan
PSCL4 TIMELY PREFETCHES:          0 LATE PREFETCHES: 0 DROPPED PREFETCHES: 0
PSCL4 PREFETCHES SAME FILL-ORIGIN LEVEL: 0 DIFFERENT FILL-ORIGIN LEVEL: 0

PSCL3 TOTAL     ACCESS:      32669  HIT:      32666  MISS:          3  HIT %:    99.9908  MISS %: 0.00918302   MPKI: 0.00012
PSCL3 LOAD TRANSLATION ACCESS:      32667  HIT:      32664  MISS:          3  HIT %:    99.9908  MISS %: 0.00918358   MPKI: 0.00012
PSCL3 TRANSLATION FROM L1D PREFETCHER ACCESS:          2  HIT:          2  MISS:          0  HIT %:        100  MISS %:          0   MPKI: 0
PSCL3 PREFETCH  REQUESTED:          0  ISSUED:          0  USEFUL:          0  USELESS:          0
PSCL3 USEFUL LOAD PREFETCHES:          0 PREFETCH ISSUED TO LOWER LEVEL:          0  ACCURACY: -nan
PSCL3 TIMELY PREFETCHES:          0 LATE PREFETCHES: 0 DROPPED PREFETCHES: 0
PSCL3 PREFETCHES SAME FILL-ORIGIN LEVEL: 0 DIFFERENT FILL-ORIGIN LEVEL: 0

PSCL2 TOTAL     ACCESS:      32669  HIT:      31942  MISS:        727  HIT %:    97.7746  MISS %:    2.22535   MPKI: 0.02908
PSCL2 LOAD TRANSLATION ACCESS:      32668  HIT:      31941  MISS:        727  HIT %:    97.7746  MISS %:    2.22542   MPKI: 0.02908
PSCL2 TRANSLATION FROM L1D PREFETCHER ACCESS:          1  HIT:          1  MISS:          0  HIT %:        100  MISS %:          0   MPKI: 0
PSCL2 PREFETCH  REQUESTED:          0  ISSUED:          0  USEFUL:          0  USELESS:          0
PSCL2 USEFUL LOAD PREFETCHES:          0 PREFETCH ISSUED TO LOWER LEVEL:          0  ACCURACY: -nan
PSCL2 TIMELY PREFETCHES:          0 LATE PREFETCHES: 0 DROPPED PREFETCHES: 0
PSCL2 PREFETCHES SAME FILL-ORIGIN LEVEL: 0 DIFFERENT FILL-ORIGIN LEVEL: 0

LLC TOTAL     ACCESS:    1797510  HIT:       4999  MISS:    1792511  HIT %:   0.278107  MISS %:    99.7219   MPKI: 71.7004
LLC LOAD      ACCESS:      52444  HIT:        129  MISS:      52315  HIT %:   0.245977  MISS %:     99.754   MPKI: 2.0926
LLC RFO       ACCESS:        282  HIT:          1  MISS:        281  HIT %:    0.35461  MISS %:    99.6454   MPKI: 0.01124
LLC PREFETCH  ACCESS:    1734538  HIT:       1762  MISS:    1732776  HIT %:   0.101583  MISS %:    99.8984   MPKI: 69.311
AGUS PREFETCH L1 MISS: 0
LLC WRITEBACK ACCESS:       2776  HIT:       2770  MISS:          6  HIT %:    99.7839  MISS %:   0.216138   MPKI: 0.00024
LLC LOAD TRANSLATION ACCESS:       7468  HIT:        337  MISS:       7131  HIT %:    4.51259  MISS %:    95.4874   MPKI: 0.28524
LLC TRANSLATION FROM L1D PREFETCHER ACCESS:          2  HIT:          0  MISS:          2  HIT %:          0  MISS %:        100   MPKI: 8e-05
LLC PREFETCH  REQUESTED:          0  ISSUED:          0  USEFUL:         38  USELESS:    1732032
LLC USEFUL LOAD PREFETCHES:         38 PREFETCH ISSUED TO LOWER LEVEL:    1732776  ACCURACY: 0.00219301
LLC TIMELY PREFETCHES:         38 LATE PREFETCHES: 0 DROPPED PREFETCHES: 0
LLC PREFETCHES SAME FILL-ORIGIN LEVEL: 0 DIFFERENT FILL-ORIGIN LEVEL: 0
LLC AVERAGE MISS LATENCY: 78.4637 cycles
LLC RQ	ACCESS:      60196	FORWARD:          0	MERGED:          0	TO_CACHE:      60196
LLC WQ	ACCESS:       2776	FORWARD:          0	MERGED:          0	TO_CACHE:       2776
LLC PQ	ACCESS:    1734538	FORWARD:          0	MERGED:          0	TO_CACHE:    1734538

LLC Dense regions hint to LLC: 0

RAW hits: 4006
Loads Generated: 8976947
Loads sent to L1D: 8972941
Stores Generated: 370377
Stores sent to L1D: 370377
Major fault: 0 Minor fault: 48857
Allocated PAGES: 48857
CPU 0 L1D complex stride prefetcher final stats
Degree: 5

DRAM Statistics
 CHANNEL 0
 RQ ROW_BUFFER_HIT:    1677608  ROW_BUFFER_MISS:     114897
 DBUS_CONGESTED:        361
 WQ ROW_BUFFER_HIT:        554  ROW_BUFFER_MISS:       2211  FULL:          0

 AVG_CONGESTED_CYCLE: 5
 All warmup complete: 2
Channel 0 Bank busy for read cycles: 0
Channel 0 Bank busy for write cycles: 0
Channel 0
Rank 0
0banks busy for read cycles: 20215047
0banks busy for write cycles: 1382
1banks busy for read cycles: 18262606
1banks busy for write cycles: 300290
2banks busy for read cycles: 18413939
2banks busy for write cycles: 123544
3banks busy for read cycles: 5817724
3banks busy for write cycles: 60359
4banks busy for read cycles: 2821563
4banks busy for write cycles: 24987
5banks busy for read cycles: 1671985
5banks busy for write cycles: 11101
6banks busy for read cycles: 1385470
6banks busy for write cycles: 3764
7banks busy for read cycles: 78954
7banks busy for write cycles: 2568
8banks busy for read cycles: 7833
8banks busy for write cycles: 704

CPU 0 Branch Prediction Accuracy: 99.1323% MPKI: 3.09396 Average ROB Occupancy at Mispredict: 108.782
Branch types
NOT_BRANCH: 16085563 64.3423%
BRANCH_DIRECT_JUMP: 85874 0.343496%
BRANCH_INDIRECT: 0 0%
BRANCH_CONDITIONAL: 8744101 34.9764%
BRANCH_DIRECT_CALL: 42053 0.168212%
BRANCH_INDIRECT_CALL: 0 0%
BRANCH_RETURN: 42053 0.168212%
BRANCH_OTHER: 0 0%

DRAM PAGES: 1048576
Allocated PAGES: 48857
